2-nitrophenanthrene
csChmFindW1207992328
[comments]
 17 19  0     0  0  0  0  0  0  1 V2000
    0.6533    2.4267    0.0000 C   0  0  0  0  0  0  0  0  0  0
    0.0000    1.2133    0.0000 C   0  0  0  0  0  0  0  0  0  0
    0.6533   -0.0000    0.0000 C   0  0  0  0  0  0  0  0  0  0
    2.0533   -0.0000    0.0000 C   0  0  0  0  0  0  0  0  0  0
    2.7533    1.2133    0.0000 C   0  0  0  0  0  0  0  0  0  0
    2.0533    2.4267    0.0000 C   0  0  0  0  0  0  0  0  0  0
    4.1533    1.2133    0.0000 C   0  0  0  0  0  0  0  0  0  0
    4.8533    2.4267    0.0000 C   0  0  0  0  0  0  0  0  0  0
    4.1533    3.5933    0.0000 C   0  0  0  0  0  0  0  0  0  0
    2.7533    3.5933    0.0000 C   0  0  0  0  0  0  0  0  0  0
    4.8533   -0.0000    0.0000 C   0  0  0  0  0  0  0  0  0  0
    6.2533   -0.0000    0.0000 C   0  0  0  0  0  0  0  0  0  0
    7.0000    1.2133    0.0000 C   0  0  0  0  0  0  0  0  0  0
    6.2533    2.4267    0.0000 C   0  0  0  0  0  0  0  0  0  0
    8.4000    1.2133    0.0000 N   0  3  0  0  0  0  0  0  0  0
    9.1000   -0.0000    0.0000 O   0  5  0  0  0  0  0  0  0  0
    9.1000    2.4267    0.0000 O   0  0  0  0  0  0  0  0  0  0
  1  2  4  0  0  0  0
  2  3  4  0  0  0  0
  3  4  4  0  0  0  0
  4  5  4  0  0  0  0
  5  6  4  0  0  0  0
  1  6  4  0  0  0  0
  5  7  4  0  0  0  0
  7  8  4  0  0  0  0
  8  9  4  0  0  0  0
  9 10  4  0  0  0  0
  6 10  4  0  0  0  0
  7 11  4  0  0  0  0
 11 12  4  0  0  0  0
 12 13  4  0  0  0  0
 13 14  4  0  0  0  0
  8 14  4  0  0  0  0
 13 15  1  0  0  0  0
 15 16  1  0  0  0  0
 15 17  2  0  0  0  0
M  END
>  <Compound Name> (1)
2-nitrophenanthrene

>  <Formula> (1)
C14H9NO2

>  <LogP> (1)
4.23

>  <LUMO> (1)
-1.246

>  <MOL_ID> (1)
1

>  <Activity> (1)
2.11

$$$$
8-nitroquinoline
csChmFindW1207992328
[comments]
 13 14  0     0  0  0  0  0  0  1 V2000
   -0.0000    2.7985    0.0000 C   0  0  0  0  0  0  0  0  0  0
    1.1660    2.0988    0.0000 C   0  0  0  0  0  0  0  0  0  0
    2.3787    2.7985    0.0000 C   0  0  0  0  0  0  0  0  0  0
    2.3787    4.1977    0.0000 C   0  0  0  0  0  0  0  0  0  0
    1.1660    4.8973    0.0000 C   0  0  0  0  0  0  0  0  0  0
   -0.0000    4.1977    0.0000 C   0  0  0  0  0  0  0  0  0  0
    3.5913    2.0988    0.0000 N   0  0  0  0  0  0  0  0  0  0
    4.8040    2.7985    0.0000 C   0  0  0  0  0  0  0  0  0  0
    4.8040    4.1977    0.0000 C   0  0  0  0  0  0  0  0  0  0
    3.5913    4.8973    0.0000 C   0  0  0  0  0  0  0  0  0  0
    1.1660    0.6996    0.0000 N   0  3  0  0  0  0  0  0  0  0
   -0.0000    0.0000    0.0000 O   0  5  0  0  0  0  0  0  0  0
    2.3787    0.0000    0.0000 O   0  0  0  0  0  0  0  0  0  0
  1  2  4  0  0  0  0
  2  3  4  0  0  0  0
  3  4  4  0  0  0  0
  4  5  4  0  0  0  0
  5  6  4  0  0  0  0
  1  6  4  0  0  0  0
  3  7  4  0  0  0  0
  7  8  4  0  0  0  0
  8  9  4  0  0  0  0
  9 10  4  0  0  0  0
  4 10  4  0  0  0  0
  2 11  1  0  0  0  0
 11 12  1  0  0  0  0
 11 13  2  0  0  0  0
M  END
>  <Compound Name> (2)
8-nitroquinoline

>  <Formula> (2)
C9H6N2O2

>  <LogP> (2)
1.44

>  <LUMO> (2)
-1.429

>  <MOL_ID> (2)
2

>  <Activity> (2)
-1.24

$$$$
5-nitroquinoline
csChmFindW1207992328
[comments]
 13 14  0     0  0  0  0  0  0  1 V2000
   -0.0000    0.6996    0.0000 C   0  0  0  0  0  0  0  0  0  0
    1.1660    0.0000    0.0000 C   0  0  0  0  0  0  0  0  0  0
    2.3787    0.6996    0.0000 C   0  0  0  0  0  0  0  0  0  0
    2.3787    2.0989    0.0000 C   0  0  0  0  0  0  0  0  0  0
    1.1660    2.7985    0.0000 C   0  0  0  0  0  0  0  0  0  0
   -0.0000    2.0989    0.0000 C   0  0  0  0  0  0  0  0  0  0
    3.5914    0.0000    0.0000 N   0  0  0  0  0  0  0  0  0  0
    4.8040    0.6996    0.0000 C   0  0  0  0  0  0  0  0  0  0
    4.8040    2.0989    0.0000 C   0  0  0  0  0  0  0  0  0  0
    3.5914    2.7985    0.0000 C   0  0  0  0  0  0  0  0  0  0
    1.1660    4.1977    0.0000 N   0  3  0  0  0  0  0  0  0  0
    2.3787    4.8973    0.0000 O   0  5  0  0  0  0  0  0  0  0
   -0.0000    4.8973    0.0000 O   0  0  0  0  0  0  0  0  0  0
  1  2  4  0  0  0  0
  2  3  4  0  0  0  0
  3  4  4  0  0  0  0
  4  5  4  0  0  0  0
  5  6  4  0  0  0  0
  1  6  4  0  0  0  0
  3  7  4  0  0  0  0
  7  8  4  0  0  0  0
  8  9  4  0  0  0  0
  9 10  4  0  0  0  0
  4 10  4  0  0  0  0
  5 11  1  0  0  0  0
 11 12  1  0  0  0  0
 11 13  2  0  0  0  0
M  END
>  <Compound Name> (3)
5-nitroquinoline

>  <Formula> (3)
C9H6N2O2

>  <LogP> (3)
1.86

>  <LUMO> (3)
-1.456

>  <MOL_ID> (3)
3

>  <Activity> (3)
-0.96

$$$$
1-nitrofluoranthene
csChmFindW1207992328
[comments]
 19 22  0     0  0  0  0  0  0  1 V2000
    2.2867    2.0067    0.0000 C   0  0  0  0  0  0  0  0  0  0
    2.2867    0.7000    0.0000 C   0  0  0  0  0  0  0  0  0  0
    3.5467    0.0467    0.0000 C   0  0  0  0  0  0  0  0  0  0
    4.5733    0.7933    0.0000 C   0  0  0  0  0  0  0  0  0  0
    4.5733    2.1933    0.0000 C   0  0  0  0  0  0  0  0  0  0
    3.3133    2.8933    0.0000 C   0  0  0  0  0  0  0  0  0  0
    1.1667    2.8000    0.0000 C   0  0  0  0  0  0  0  0  0  0
    0.0000    2.1000    0.0000 C   0  0  0  0  0  0  0  0  0  0
    0.0000    0.7000    0.0000 C   0  0  0  0  0  0  0  0  0  0
    1.1667    0.0000    0.0000 C   0  0  0  0  0  0  0  0  0  0
    2.9867    4.1533    0.0000 C   0  0  0  0  0  0  0  0  0  0
    1.5867    4.1533    0.0000 C   0  0  0  0  0  0  0  0  0  0
    3.6867    5.3667    0.0000 C   0  0  0  0  0  0  0  0  0  0
    2.9867    6.5800    0.0000 C   0  0  0  0  0  0  0  0  0  0
    1.5867    6.5800    0.0000 C   0  0  0  0  0  0  0  0  0  0
    0.8867    5.3667    0.0000 C   0  0  0  0  0  0  0  0  0  0
    5.7867    2.8933    0.0000 N   0  3  0  0  0  0  0  0  0  0
    7.0000    2.1933    0.0000 O   0  5  0  0  0  0  0  0  0  0
    5.7867    4.2933    0.0000 O   0  0  0  0  0  0  0  0  0  0
  1  2  4  0  0  0  0
  2  3  4  0  0  0  0
  3  4  4  0  0  0  0
  4  5  4  0  0  0  0
  5  6  4  0  0  0  0
  1  6  4  0  0  0  0
  1  7  4  0  0  0  0
  7  8  4  0  0  0  0
  8  9  4  0  0  0  0
  9 10  4  0  0  0  0
  2 10  4  0  0  0  0
  6 11  1  0  0  0  0
 11 12  4  0  0  0  0
  7 12  1  0  0  0  0
 11 13  4  0  0  0  0
 13 14  4  0  0  0  0
 14 15  4  0  0  0  0
 15 16  4  0  0  0  0
 12 16  4  0  0  0  0
  5 17  1  0  0  0  0
 17 18  1  0  0  0  0
 17 19  2  0  0  0  0
M  END
>  <Compound Name> (4)
1-nitrofluoranthene

>  <Formula> (4)
C16H9NO2

>  <LogP> (4)
4.69

>  <LUMO> (4)
-1.591

>  <MOL_ID> (4)
4

>  <Activity> (4)
2.74

$$$$
2,5-difluoronitrobenzene
csChmFindW1207992328
[comments]
 11 11  0     0  0  0  0  0  0  1 V2000
   -0.0000    2.4267    0.0000 C   0  0  0  0  0  0  0  0  0  0
    0.6533    1.2133    0.0000 C   0  0  0  0  0  0  0  0  0  0
    2.0533    1.2133    0.0000 C   0  0  0  0  0  0  0  0  0  0
    2.7533    2.4267    0.0000 C   0  0  0  0  0  0  0  0  0  0
    2.0533    3.6400    0.0000 C   0  0  0  0  0  0  0  0  0  0
    0.6533    3.6400    0.0000 C   0  0  0  0  0  0  0  0  0  0
    4.1533    2.4267    0.0000 N   0  3  0  0  0  0  0  0  0  0
    4.8533    1.2133    0.0000 O   0  5  0  0  0  0  0  0  0  0
    4.8533    3.6400    0.0000 O   0  0  0  0  0  0  0  0  0  0
    2.7533    4.8533    0.0000 F   0  0  0  0  0  0  0  0  0  0
   -0.0000   -0.0000    0.0000 F   0  0  0  0  0  0  0  0  0  0
  1  2  4  0  0  0  0
  2  3  4  0  0  0  0
  3  4  4  0  0  0  0
  4  5  4  0  0  0  0
  5  6  4  0  0  0  0
  1  6  4  0  0  0  0
  4  7  1  0  0  0  0
  7  8  1  0  0  0  0
  7  9  2  0  0  0  0
  5 10  1  0  0  0  0
  2 11  1  0  0  0  0
M  END
>  <Compound Name> (5)
2,5-difluoronitrobenzene

>  <Formula> (5)
C6H3F2NO2

>  <LogP> (5)
1.89

>  <LUMO> (5)
-1.59

>  <MOL_ID> (5)
5

>  <Activity> (5)
-0.79

$$$$
1,3,6,8-tetranitropyrene
csChmFindW1207992328
[comments]
 28 31  0     0  0  0  0  0  0  1 V2000
    2.3787    4.1977    0.0000 C   0  0  0  0  0  0  0  0  0  0
    2.3787    2.7985    0.0000 C   0  0  0  0  0  0  0  0  0  0
    3.5914    2.0989    0.0000 C   0  0  0  0  0  0  0  0  0  0
    4.8040    2.7985    0.0000 C   0  0  0  0  0  0  0  0  0  0
    4.8040    4.1977    0.0000 C   0  0  0  0  0  0  0  0  0  0
    3.5914    4.8973    0.0000 C   0  0  0  0  0  0  0  0  0  0
    6.0167    2.0989    0.0000 C   0  0  0  0  0  0  0  0  0  0
    7.2294    2.7985    0.0000 C   0  0  0  0  0  0  0  0  0  0
    7.2294    4.1977    0.0000 C   0  0  0  0  0  0  0  0  0  0
    6.0167    4.8973    0.0000 C   0  0  0  0  0  0  0  0  0  0
    6.0167    6.2965    0.0000 C   0  0  0  0  0  0  0  0  0  0
    4.8040    6.9962    0.0000 C   0  0  0  0  0  0  0  0  0  0
    3.5914    6.2965    0.0000 C   0  0  0  0  0  0  0  0  0  0
    8.4420    4.8973    0.0000 C   0  0  0  0  0  0  0  0  0  0
    8.4420    6.2965    0.0000 C   0  0  0  0  0  0  0  0  0  0
    7.2294    6.9962    0.0000 C   0  0  0  0  0  0  0  0  0  0
    7.2294    8.3954    0.0000 N   0  3  0  0  0  0  0  0  0  0
    8.4420    9.0484    0.0000 O   0  5  0  0  0  0  0  0  0  0
    6.0167    9.0484    0.0000 O   0  0  0  0  0  0  0  0  0  0
    9.6547    4.1977    0.0000 N   0  3  0  0  0  0  0  0  0  0
    9.6547    2.7985    0.0000 O   0  5  0  0  0  0  0  0  0  0
   10.8674    4.8973    0.0000 O   0  0  0  0  0  0  0  0  0  0
    1.1660    4.8973    0.0000 N   0  3  0  0  0  0  0  0  0  0
    1.1660    6.2965    0.0000 O   0  5  0  0  0  0  0  0  0  0
    0.0000    4.1977    0.0000 O   0  0  0  0  0  0  0  0  0  0
    3.5914    0.6996    0.0000 N   0  3  0  0  0  0  0  0  0  0
    2.3787   -0.0000    0.0000 O   0  5  0  0  0  0  0  0  0  0
    4.8040   -0.0000    0.0000 O   0  0  0  0  0  0  0  0  0  0
  1  2  4  0  0  0  0
  2  3  4  0  0  0  0
  3  4  4  0  0  0  0
  4  5  4  0  0  0  0
  5  6  4  0  0  0  0
  1  6  4  0  0  0  0
  4  7  4  0  0  0  0
  7  8  4  0  0  0  0
  8  9  4  0  0  0  0
  9 10  4  0  0  0  0
  5 10  4  0  0  0  0
 10 11  4  0  0  0  0
 11 12  4  0  0  0  0
 12 13  4  0  0  0  0
  6 13  4  0  0  0  0
  9 14  4  0  0  0  0
 14 15  4  0  0  0  0
 15 16  4  0  0  0  0
 11 16  4  0  0  0  0
 16 17  1  0  0  0  0
 17 18  1  0  0  0  0
 17 19  2  0  0  0  0
 14 20  1  0  0  0  0
 20 21  1  0  0  0  0
 20 22  2  0  0  0  0
  1 23  1  0  0  0  0
 23 24  1  0  0  0  0
 23 25  2  0  0  0  0
  3 26  1  0  0  0  0
 26 27  1  0  0  0  0
 26 28  2  0  0  0  0
M  END
>  <Compound Name> (6)
1,3,6,8-tetranitropyrene

>  <Formula> (6)
C16H6N4O8

>  <LogP> (6)
3.92

>  <LUMO> (6)
-3.406

>  <MOL_ID> (6)
6

>  <Activity> (6)
4.99

$$$$
3-methyl-4-nitrobiphenyl
csChmFindW1207992328
[comments]
 16 17  0     0  0  0  0  0  0  1 V2000
   -0.0000    1.2133    0.0000 C   0  0  0  0  0  0  0  0  0  0
    0.6533   -0.0000    0.0000 C   0  0  0  0  0  0  0  0  0  0
    2.0533   -0.0000    0.0000 C   0  0  0  0  0  0  0  0  0  0
    2.7533    1.2133    0.0000 C   0  0  0  0  0  0  0  0  0  0
    2.0533    2.4267    0.0000 C   0  0  0  0  0  0  0  0  0  0
    0.6533    2.4267    0.0000 C   0  0  0  0  0  0  0  0  0  0
    4.1533    1.2133    0.0000 C   0  0  0  0  0  0  0  0  0  0
    4.8533   -0.0000    0.0000 C   0  0  0  0  0  0  0  0  0  0
    6.2533   -0.0000    0.0000 C   0  0  0  0  0  0  0  0  0  0
    6.9533    1.2133    0.0000 C   0  0  0  0  0  0  0  0  0  0
    6.2533    2.4267    0.0000 C   0  0  0  0  0  0  0  0  0  0
    4.8533    2.4267    0.0000 C   0  0  0  0  0  0  0  0  0  0
    6.9533    3.5933    0.0000 C   0  0  0  0  0  0  0  0  0  0
    8.3533    1.2133    0.0000 N   0  3  0  0  0  0  0  0  0  0
    9.0533   -0.0000    0.0000 O   0  5  0  0  0  0  0  0  0  0
    9.0533    2.4267    0.0000 O   0  0  0  0  0  0  0  0  0  0
  1  2  4  0  0  0  0
  2  3  4  0  0  0  0
  3  4  4  0  0  0  0
  4  5  4  0  0  0  0
  5  6  4  0  0  0  0
  1  6  4  0  0  0  0
  4  7  1  0  0  0  0
  7  8  4  0  0  0  0
  8  9  4  0  0  0  0
  9 10  4  0  0  0  0
 10 11  4  0  0  0  0
 11 12  4  0  0  0  0
  7 12  4  0  0  0  0
 11 13  1  0  0  0  0
 10 14  1  0  0  0  0
 14 15  1  0  0  0  0
 14 16  2  0  0  0  0
M  END
>  <Compound Name> (7)
3-methyl-4-nitrobiphenyl

>  <Formula> (7)
C13H11NO2

>  <LogP> (7)
3.99

>  <LUMO> (7)
-1.144

>  <MOL_ID> (7)
7

>  <Activity> (7)
-0.1

$$$$
2-acetoxy-7-nitrofluorene
csChmFindW1207992328
[comments]
 20 22  0     0  0  0  0  0  0  1 V2000
    3.5913    3.4981    0.0000 C   0  0  0  0  0  0  0  0  0  0
    3.5913    2.0988    0.0000 C   0  0  0  0  0  0  0  0  0  0
    4.8040    1.3992    0.0000 C   0  0  0  0  0  0  0  0  0  0
    6.0167    2.0988    0.0000 C   0  0  0  0  0  0  0  0  0  0
    6.0167    3.4981    0.0000 C   0  0  0  0  0  0  0  0  0  0
    4.8040    4.1510    0.0000 C   0  0  0  0  0  0  0  0  0  0
    7.2293    1.3992    0.0000 C   0  0  0  0  0  0  0  0  0  0
    8.4420    2.0988    0.0000 C   0  0  0  0  0  0  0  0  0  0
    8.4420    3.4981    0.0000 C   0  0  0  0  0  0  0  0  0  0
    9.6546    1.3992    0.0000 C   0  0  0  0  0  0  0  0  0  0
   10.8673    2.0988    0.0000 C   0  0  0  0  0  0  0  0  0  0
   10.8673    3.4981    0.0000 C   0  0  0  0  0  0  0  0  0  0
    9.6546    4.1510    0.0000 C   0  0  0  0  0  0  0  0  0  0
   12.0800    1.3992    0.0000 N   0  3  0  0  0  0  0  0  0  0
   12.0800    0.0000    0.0000 O   0  5  0  0  0  0  0  0  0  0
   13.2926    2.0988    0.0000 O   0  0  0  0  0  0  0  0  0  0
    2.3787    1.3992    0.0000 O   0  0  0  0  0  0  0  0  0  0
    1.1660    2.0988    0.0000 C   0  0  0  0  0  0  0  0  0  0
    1.1660    3.4981    0.0000 O   0  0  0  0  0  0  0  0  0  0
    0.0000    1.3992    0.0000 C   0  0  0  0  0  0  0  0  0  0
  1  2  4  0  0  0  0
  2  3  4  0  0  0  0
  3  4  4  0  0  0  0
  4  5  4  0  0  0  0
  5  6  4  0  0  0  0
  1  6  4  0  0  0  0
  4  7  1  0  0  0  0
  7  8  1  0  0  0  0
  8  9  4  0  0  0  0
  5  9  1  0  0  0  0
  8 10  4  0  0  0  0
 10 11  4  0  0  0  0
 11 12  4  0  0  0  0
 12 13  4  0  0  0  0
  9 13  4  0  0  0  0
 11 14  1  0  0  0  0
 14 15  1  0  0  0  0
 14 16  2  0  0  0  0
  2 17  1  0  0  0  0
 17 18  1  0  0  0  0
 18 19  2  0  0  0  0
 18 20  1  0  0  0  0
M  END
>  <Compound Name> (8)
2-acetoxy-7-nitrofluorene

>  <Formula> (8)
C15H11NO4

>  <LogP> (8)
3.46

>  <LUMO> (8)
-1.437

>  <MOL_ID> (8)
8

>  <Activity> (8)
1.86

$$$$
5-nitrobenzimidazole
csChmFindW1207992328
[comments]
 12 13  0     0  0  0  0  0  0  1 V2000
    2.3787    2.0988    0.0000 C   0  0  0  0  0  0  0  0  0  0
    2.3787    0.6996    0.0000 C   0  0  0  0  0  0  0  0  0  0
    3.5914   -0.0000    0.0000 C   0  0  0  0  0  0  0  0  0  0
    4.8040    0.6996    0.0000 C   0  0  0  0  0  0  0  0  0  0
    4.8040    2.0988    0.0000 C   0  0  0  0  0  0  0  0  0  0
    3.5914    2.7985    0.0000 C   0  0  0  0  0  0  0  0  0  0
    6.1566    0.2798    0.0000 N   0  0  0  0  0  0  0  0  0  0
    6.9495    1.3992    0.0000 C   0  0  0  0  0  0  0  0  0  0
    6.1566    2.5186    0.0000 N   0  0  0  1  0  0  0  0  0  0
    1.1660    2.7985    0.0000 N   0  3  0  0  0  0  0  0  0  0
    1.1660    4.1510    0.0000 O   0  5  0  0  0  0  0  0  0  0
    0.0000    2.0988    0.0000 O   0  0  0  0  0  0  0  0  0  0
  1  2  4  0  0  0  0
  2  3  4  0  0  0  0
  3  4  4  0  0  0  0
  4  5  4  0  0  0  0
  5  6  4  0  0  0  0
  1  6  4  0  0  0  0
  4  7  4  0  0  0  0
  7  8  4  0  0  0  0
  8  9  4  0  0  0  0
  5  9  4  0  0  0  0
  1 10  1  0  0  0  0
 10 11  1  0  0  0  0
 10 12  2  0  0  0  0
M  END
>  <Compound Name> (9)
5-nitrobenzimidazole

>  <Formula> (9)
C7H4N3O2

>  <LogP> (9)
1.64

>  <LUMO> (9)
-0.982

>  <MOL_ID> (9)
9

>  <Activity> (9)
-1.83

$$$$
2-methyl-7-nitrofluorene
csChmFindW1207992328
[comments]
 17 19  0     0  0  0  0  0  0  1 V2000
    2.3800    3.5000    0.0000 C   0  0  0  0  0  0  0  0  0  0
    2.3800    2.1000    0.0000 C   0  0  0  0  0  0  0  0  0  0
    3.5933    1.4000    0.0000 C   0  0  0  0  0  0  0  0  0  0
    4.8067    2.1000    0.0000 C   0  0  0  0  0  0  0  0  0  0
    4.8067    3.5000    0.0000 C   0  0  0  0  0  0  0  0  0  0
    3.5933    4.1533    0.0000 C   0  0  0  0  0  0  0  0  0  0
    6.0200    1.4000    0.0000 C   0  0  0  0  0  0  0  0  0  0
    7.2333    2.1000    0.0000 C   0  0  0  0  0  0  0  0  0  0
    7.2333    3.5000    0.0000 C   0  0  0  0  0  0  0  0  0  0
    8.4467    1.4000    0.0000 C   0  0  0  0  0  0  0  0  0  0
    9.6600    2.1000    0.0000 C   0  0  0  0  0  0  0  0  0  0
    9.6600    3.5000    0.0000 C   0  0  0  0  0  0  0  0  0  0
    8.4467    4.1533    0.0000 C   0  0  0  0  0  0  0  0  0  0
   10.8733    1.4000    0.0000 C   0  0  0  0  0  0  0  0  0  0
    1.1667    1.4000    0.0000 N   0  3  0  0  0  0  0  0  0  0
   -0.0000    2.1000    0.0000 O   0  5  0  0  0  0  0  0  0  0
    1.1667    0.0000    0.0000 O   0  0  0  0  0  0  0  0  0  0
  1  2  4  0  0  0  0
  2  3  4  0  0  0  0
  3  4  4  0  0  0  0
  4  5  4  0  0  0  0
  5  6  4  0  0  0  0
  1  6  4  0  0  0  0
  4  7  1  0  0  0  0
  7  8  1  0  0  0  0
  8  9  4  0  0  0  0
  5  9  1  0  0  0  0
  8 10  4  0  0  0  0
 10 11  4  0  0  0  0
 11 12  4  0  0  0  0
 12 13  4  0  0  0  0
  9 13  4  0  0  0  0
 11 14  1  0  0  0  0
  2 15  1  0  0  0  0
 15 16  1  0  0  0  0
 15 17  2  0  0  0  0
M  END
>  <Compound Name> (10)
2-methyl-7-nitrofluorene

>  <Formula> (10)
C14H11NO2

>  <LogP> (10)
4.62

>  <LUMO> (10)
-1.387

>  <MOL_ID> (10)
10

>  <Activity> (10)
2.36

$$$$
9-nitrophenanthrene
csChmFindW1207992328
[comments]
 17 19  0     0  0  0  0  0  0  1 V2000
    0.6533    2.4267    0.0000 C   0  0  0  0  0  0  0  0  0  0
    0.0000    1.2133    0.0000 C   0  0  0  0  0  0  0  0  0  0
    0.6533   -0.0000    0.0000 C   0  0  0  0  0  0  0  0  0  0
    2.0533   -0.0000    0.0000 C   0  0  0  0  0  0  0  0  0  0
    2.7533    1.2133    0.0000 C   0  0  0  0  0  0  0  0  0  0
    2.0533    2.4267    0.0000 C   0  0  0  0  0  0  0  0  0  0
    4.1533    1.2133    0.0000 C   0  0  0  0  0  0  0  0  0  0
    4.8533    2.4267    0.0000 C   0  0  0  0  0  0  0  0  0  0
    4.1533    3.6400    0.0000 C   0  0  0  0  0  0  0  0  0  0
    2.7533    3.6400    0.0000 C   0  0  0  0  0  0  0  0  0  0
    4.8533   -0.0000    0.0000 C   0  0  0  0  0  0  0  0  0  0
    6.2533   -0.0000    0.0000 C   0  0  0  0  0  0  0  0  0  0
    7.0000    1.2133    0.0000 C   0  0  0  0  0  0  0  0  0  0
    6.2533    2.4267    0.0000 C   0  0  0  0  0  0  0  0  0  0
    2.0533    4.8533    0.0000 N   0  3  0  0  0  0  0  0  0  0
    2.7533    6.0200    0.0000 O   0  5  0  0  0  0  0  0  0  0
    0.6533    4.8533    0.0000 O   0  0  0  0  0  0  0  0  0  0
  1  2  4  0  0  0  0
  2  3  4  0  0  0  0
  3  4  4  0  0  0  0
  4  5  4  0  0  0  0
  5  6  4  0  0  0  0
  1  6  4  0  0  0  0
  5  7  4  0  0  0  0
  7  8  4  0  0  0  0
  8  9  4  0  0  0  0
  9 10  4  0  0  0  0
  6 10  4  0  0  0  0
  7 11  4  0  0  0  0
 11 12  4  0  0  0  0
 12 13  4  0  0  0  0
 13 14  4  0  0  0  0
  8 14  4  0  0  0  0
 10 15  1  0  0  0  0
 15 16  1  0  0  0  0
 15 17  2  0  0  0  0
M  END
>  <Compound Name> (11)
9-nitrophenanthrene

>  <Formula> (11)
C14H9NO2

>  <LogP> (11)
4.23

>  <LUMO> (11)
-1.254

>  <MOL_ID> (11)
11

>  <Activity> (11)
2.25

$$$$
1-amino-8-nitropyrene
csChmFindW1207992328
[comments]
 20 23  0     0  0  0  0  0  0  1 V2000
    2.3321    2.0988    0.0000 C   0  0  0  0  0  0  0  0  0  0
    2.3321    0.6996    0.0000 C   0  0  0  0  0  0  0  0  0  0
    3.5447    0.0000    0.0000 C   0  0  0  0  0  0  0  0  0  0
    4.7574    0.6996    0.0000 C   0  0  0  0  0  0  0  0  0  0
    4.7574    2.0988    0.0000 C   0  0  0  0  0  0  0  0  0  0
    3.5447    2.7985    0.0000 C   0  0  0  0  0  0  0  0  0  0
    5.9700    2.7985    0.0000 C   0  0  0  0  0  0  0  0  0  0
    5.9700    4.1977    0.0000 C   0  0  0  0  0  0  0  0  0  0
    4.7574    4.8973    0.0000 C   0  0  0  0  0  0  0  0  0  0
    3.5447    4.1977    0.0000 C   0  0  0  0  0  0  0  0  0  0
    7.1827    2.0988    0.0000 C   0  0  0  0  0  0  0  0  0  0
    8.3954    2.7985    0.0000 C   0  0  0  0  0  0  0  0  0  0
    8.3954    4.1977    0.0000 C   0  0  0  0  0  0  0  0  0  0
    7.1827    4.8973    0.0000 C   0  0  0  0  0  0  0  0  0  0
    5.9700    0.0000    0.0000 C   0  0  0  0  0  0  0  0  0  0
    7.1827    0.6996    0.0000 C   0  0  0  0  0  0  0  0  0  0
    1.1194    2.7985    0.0000 N   0  3  0  0  0  0  0  0  0  0
    1.1194    4.1977    0.0000 O   0  5  0  0  0  0  0  0  0  0
   -0.0000    2.0988    0.0000 O   0  0  0  0  0  0  0  0  0  0
    7.1827    6.2033    0.0000 N   0  0  0  0  0  3  0  0  0  0
  1  2  4  0  0  0  0
  2  3  4  0  0  0  0
  3  4  4  0  0  0  0
  4  5  4  0  0  0  0
  5  6  4  0  0  0  0
  1  6  4  0  0  0  0
  5  7  4  0  0  0  0
  7  8  4  0  0  0  0
  8  9  4  0  0  0  0
  9 10  4  0  0  0  0
  6 10  4  0  0  0  0
  7 11  4  0  0  0  0
 11 12  4  0  0  0  0
 12 13  4  0  0  0  0
 13 14  4  0  0  0  0
  8 14  4  0  0  0  0
  4 15  4  0  0  0  0
 15 16  4  0  0  0  0
 11 16  4  0  0  0  0
  1 17  1  0  0  0  0
 17 18  1  0  0  0  0
 17 19  2  0  0  0  0
 14 20  1  0  0  0  0
M  END
>  <Compound Name> (12)
1-amino-8-nitropyrene

>  <Formula> (12)
C16H10N2O2

>  <LogP> (12)
3.63

>  <LUMO> (12)
-1.627

>  <MOL_ID> (12)
12

>  <Activity> (12)
2.43

$$$$
2,4-dinitrofluoranthene
csChmFindW1207992328
[comments]
 22 25  0     0  0  0  0  0  0  1 V2000
    2.9867    8.7267    0.0000 C   0  0  0  0  0  0  0  0  0  0
    1.5867    8.7267    0.0000 C   0  0  0  0  0  0  0  0  0  0
    0.8867    7.5134    0.0000 C   0  0  0  0  0  0  0  0  0  0
    1.5867    6.2534    0.0000 C   0  0  0  0  0  0  0  0  0  0
    2.9867    6.2534    0.0000 C   0  0  0  0  0  0  0  0  0  0
    3.6867    7.5134    0.0000 C   0  0  0  0  0  0  0  0  0  0
    1.1667    4.9000    0.0000 C   0  0  0  0  0  0  0  0  0  0
    2.2867    4.0600    0.0000 C   0  0  0  0  0  0  0  0  0  0
    3.4067    4.8534    0.0000 C   0  0  0  0  0  0  0  0  0  0
    2.2867    2.8000    0.0000 C   0  0  0  0  0  0  0  0  0  0
    1.1667    2.1000    0.0000 C   0  0  0  0  0  0  0  0  0  0
   -0.0000    4.2000    0.0000 C   0  0  0  0  0  0  0  0  0  0
   -0.0000    2.8000    0.0000 C   0  0  0  0  0  0  0  0  0  0
    3.4067    2.1934    0.0000 C   0  0  0  0  0  0  0  0  0  0
    4.5267    2.8000    0.0000 C   0  0  0  0  0  0  0  0  0  0
    4.5267    4.0600    0.0000 C   0  0  0  0  0  0  0  0  0  0
    5.7867    2.1000    0.0000 N   0  3  0  0  0  0  0  0  0  0
    5.7867    0.7000    0.0000 O   0  5  0  0  0  0  0  0  0  0
    6.9067    2.8000    0.0000 O   0  0  0  0  0  0  0  0  0  0
    1.1667    0.7000    0.0000 N   0  3  0  0  0  0  0  0  0  0
   -0.0000    0.0000    0.0000 O   0  5  0  0  0  0  0  0  0  0
    2.4267    0.0000    0.0000 O   0  0  0  0  0  0  0  0  0  0
  1  2  4  0  0  0  0
  2  3  4  0  0  0  0
  3  4  4  0  0  0  0
  4  5  4  0  0  0  0
  5  6  4  0  0  0  0
  1  6  4  0  0  0  0
  4  7  1  0  0  0  0
  7  8  4  0  0  0  0
  8  9  4  0  0  0  0
  5  9  1  0  0  0  0
 10 11  4  0  0  0  0
  8 10  4  0  0  0  0
  7 12  4  0  0  0  0
 12 13  4  0  0  0  0
 11 13  4  0  0  0  0
 10 14  4  0  0  0  0
 14 15  4  0  0  0  0
 15 16  4  0  0  0  0
  9 16  4  0  0  0  0
 15 17  1  0  0  0  0
 17 18  1  0  0  0  0
 17 19  2  0  0  0  0
 11 20  1  0  0  0  0
 20 21  1  0  0  0  0
 20 22  2  0  0  0  0
M  END
>  <Compound Name> (13)
2,4-dinitrofluoranthene

>  <Formula> (13)
C16H8N2O4

>  <LogP> (13)
4.44

>  <LUMO> (13)
-2.292

>  <MOL_ID> (13)
13

>  <Activity> (13)
3.78

$$$$
1-methyl-6-nitroindazole
csChmFindW1207992328
[comments]
 13 14  0     0  0  0  0  0  0  1 V2000
    2.3787    3.5447    0.0000 C   0  0  0  0  0  0  0  0  0  0
    2.3787    2.0988    0.0000 C   0  0  0  0  0  0  0  0  0  0
    3.5913    1.3992    0.0000 C   0  0  0  0  0  0  0  0  0  0
    4.7574    2.0988    0.0000 C   0  0  0  0  0  0  0  0  0  0
    4.7574    3.5447    0.0000 C   0  0  0  0  0  0  0  0  0  0
    3.5913    4.1510    0.0000 C   0  0  0  0  0  0  0  0  0  0
    6.1566    1.7257    0.0000 N   0  0  0  0  0  0  0  0  0  0
    6.9028    2.7984    0.0000 N   0  0  0  0  0  0  0  0  0  0
    6.1566    3.9645    0.0000 C   0  0  0  0  0  0  0  0  0  0
    1.1660    1.3992    0.0000 N   0  3  0  0  0  0  0  0  0  0
   -0.0000    2.0988    0.0000 O   0  5  0  0  0  0  0  0  0  0
    1.1660    0.0000    0.0000 O   0  0  0  0  0  0  0  0  0  0
    6.5297    0.3731    0.0000 C   0  0  0  0  0  0  0  0  0  0
  1  2  4  0  0  0  0
  2  3  4  0  0  0  0
  3  4  4  0  0  0  0
  4  5  4  0  0  0  0
  5  6  4  0  0  0  0
  1  6  4  0  0  0  0
  4  7  4  0  0  0  0
  7  8  4  0  0  0  0
  8  9  4  0  0  0  0
  5  9  4  0  0  0  0
  2 10  1  0  0  0  0
 10 11  1  0  0  0  0
 10 12  2  0  0  0  0
  7 13  1  0  0  0  0
M  END
>  <Compound Name> (14)
1-methyl-6-nitroindazole

>  <Formula> (14)
C8H8N3O2

>  <LogP> (14)
1.77

>  <LUMO> (14)
-1.289

>  <MOL_ID> (14)
14

>  <Activity> (14)
-1.1

$$$$
1-nitropyrene
csChmFindW1207992328
[comments]
 19 22  0     0  0  0  0  0  0  1 V2000
    0.0000    2.0989    0.0000 C   0  0  0  0  0  0  0  0  0  0
    0.0000    0.6996    0.0000 C   0  0  0  0  0  0  0  0  0  0
    1.1660    0.0000    0.0000 C   0  0  0  0  0  0  0  0  0  0
    2.3787    0.6996    0.0000 C   0  0  0  0  0  0  0  0  0  0
    2.3787    2.0989    0.0000 C   0  0  0  0  0  0  0  0  0  0
    1.1660    2.7985    0.0000 C   0  0  0  0  0  0  0  0  0  0
    3.5914    2.7985    0.0000 C   0  0  0  0  0  0  0  0  0  0
    3.5914    4.1977    0.0000 C   0  0  0  0  0  0  0  0  0  0
    2.3787    4.8973    0.0000 C   0  0  0  0  0  0  0  0  0  0
    1.1660    4.1977    0.0000 C   0  0  0  0  0  0  0  0  0  0
    4.8040    2.0989    0.0000 C   0  0  0  0  0  0  0  0  0  0
    6.0167    2.7985    0.0000 C   0  0  0  0  0  0  0  0  0  0
    6.0167    4.1977    0.0000 C   0  0  0  0  0  0  0  0  0  0
    4.8040    4.8973    0.0000 C   0  0  0  0  0  0  0  0  0  0
    3.5914    0.0000    0.0000 C   0  0  0  0  0  0  0  0  0  0
    4.8040    0.6996    0.0000 C   0  0  0  0  0  0  0  0  0  0
    4.8040    6.2965    0.0000 N   0  3  0  0  0  0  0  0  0  0
    6.0167    6.9962    0.0000 O   0  5  0  0  0  0  0  0  0  0
    3.5914    6.9962    0.0000 O   0  0  0  0  0  0  0  0  0  0
  1  2  4  0  0  0  0
  2  3  4  0  0  0  0
  3  4  4  0  0  0  0
  4  5  4  0  0  0  0
  5  6  4  0  0  0  0
  1  6  4  0  0  0  0
  5  7  4  0  0  0  0
  7  8  4  0  0  0  0
  8  9  4  0  0  0  0
  9 10  4  0  0  0  0
  6 10  4  0  0  0  0
  7 11  4  0  0  0  0
 11 12  4  0  0  0  0
 12 13  4  0  0  0  0
 13 14  4  0  0  0  0
  8 14  4  0  0  0  0
  4 15  4  0  0  0  0
 15 16  4  0  0  0  0
 11 16  4  0  0  0  0
 14 17  1  0  0  0  0
 17 18  1  0  0  0  0
 17 19  2  0  0  0  0
M  END
>  <Compound Name> (15)
1-nitropyrene

>  <Formula> (15)
C16H9NO2

>  <LogP> (15)
4.69

>  <LUMO> (15)
-1.698

>  <MOL_ID> (15)
15

>  <Activity> (15)
2.78

$$$$
3,4-dinitrofluoranthene
csChmFindW1207992328
[comments]
 22 25  0     0  0  0  0  0  0  1 V2000
    3.0465    8.8063    0.0000 C   0  0  0  0  0  0  0  0  0  0
    1.6185    8.8063    0.0000 C   0  0  0  0  0  0  0  0  0  0
    0.9044    7.5210    0.0000 C   0  0  0  0  0  0  0  0  0  0
    1.6185    6.2834    0.0000 C   0  0  0  0  0  0  0  0  0  0
    3.0465    6.2834    0.0000 C   0  0  0  0  0  0  0  0  0  0
    3.7605    7.5210    0.0000 C   0  0  0  0  0  0  0  0  0  0
    1.1900    4.9506    0.0000 C   0  0  0  0  0  0  0  0  0  0
    2.3325    4.0461    0.0000 C   0  0  0  0  0  0  0  0  0  0
    3.4749    4.8554    0.0000 C   0  0  0  0  0  0  0  0  0  0
    2.3325    2.7609    0.0000 C   0  0  0  0  0  0  0  0  0  0
    1.1900    2.0469    0.0000 C   0  0  0  0  0  0  0  0  0  0
    0.0000    4.1889    0.0000 C   0  0  0  0  0  0  0  0  0  0
    0.0000    2.7609    0.0000 C   0  0  0  0  0  0  0  0  0  0
    3.4749    2.0945    0.0000 C   0  0  0  0  0  0  0  0  0  0
    4.6173    2.7609    0.0000 C   0  0  0  0  0  0  0  0  0  0
    4.6173    4.0461    0.0000 C   0  0  0  0  0  0  0  0  0  0
    1.1900    0.6188    0.0000 N   0  3  0  0  0  0  0  0  0  0
    0.3332    0.0476    0.0000 O   0  5  0  0  0  0  0  0  0  0
    1.9041    0.1428    0.0000 O   0  0  0  0  0  0  0  0  0  0
    3.5701    0.8568    0.0000 N   0  3  0  0  0  0  0  0  0  0
    2.7609   -0.0000    0.0000 O   0  5  0  0  0  0  0  0  0  0
    4.2365    0.1904    0.0000 O   0  0  0  0  0  0  0  0  0  0
  1  2  4  0  0  0  0
  2  3  4  0  0  0  0
  3  4  4  0  0  0  0
  4  5  4  0  0  0  0
  5  6  4  0  0  0  0
  1  6  4  0  0  0  0
  4  7  1  0  0  0  0
  7  8  4  0  0  0  0
  8  9  4  0  0  0  0
  5  9  1  0  0  0  0
 10 11  4  0  0  0  0
  8 10  4  0  0  0  0
  7 12  4  0  0  0  0
 12 13  4  0  0  0  0
 11 13  4  0  0  0  0
 10 14  4  0  0  0  0
 14 15  4  0  0  0  0
 15 16  4  0  0  0  0
  9 16  4  0  0  0  0
 11 17  1  0  0  0  0
 17 18  1  0  0  0  0
 17 19  2  0  0  0  0
 14 20  1  0  0  0  0
 20 21  1  0  0  0  0
 20 22  2  0  0  0  0
M  END
>  <Compound Name> (16)
3,4-dinitrofluoranthene

>  <Formula> (16)
C16H8N2O4

>  <LogP> (16)
4.44

>  <LUMO> (16)
-2.172

>  <MOL_ID> (16)
16

>  <Activity> (16)
3.62

$$$$
2-nitro-m-phenylenediamine
csChmFindW1207992328
[comments]
 11 11  0     0  0  0  0  0  0  1 V2000
    0.6533    2.4267    0.0000 C   0  0  0  0  0  0  0  0  0  0
    2.0533    2.4267    0.0000 C   0  0  0  0  0  0  0  0  0  0
    2.7533    3.6400    0.0000 C   0  0  0  0  0  0  0  0  0  0
    2.0533    4.8533    0.0000 C   0  0  0  0  0  0  0  0  0  0
    0.6533    4.8533    0.0000 C   0  0  0  0  0  0  0  0  0  0
    0.0000    3.6400    0.0000 C   0  0  0  0  0  0  0  0  0  0
    4.1533    3.6400    0.0000 N   0  0  0  2  0  0  0  0  0  0
    0.0000    1.2133    0.0000 N   0  0  0  2  0  0  0  0  0  0
    2.7533    1.2133    0.0000 N   0  3  0  0  0  0  0  0  0  0
    2.0533   -0.0000    0.0000 O   0  5  0  0  0  0  0  0  0  0
    4.1533    1.2133    0.0000 O   0  0  0  0  0  0  0  0  0  0
  1  2  4  0  0  0  0
  2  3  4  0  0  0  0
  3  4  4  0  0  0  0
  4  5  4  0  0  0  0
  5  6  4  0  0  0  0
  1  6  4  0  0  0  0
  3  7  1  0  0  0  0
  1  8  1  0  0  0  0
  2  9  1  0  0  0  0
  9 10  1  0  0  0  0
  9 11  2  0  0  0  0
M  END
>  <Compound Name> (17)
2-nitro-m-phenylenediamine

>  <Formula> (17)
C6H7N3O2

>  <LogP> (17)
0.87

>  <LUMO> (17)
-0.529

>  <MOL_ID> (17)
17

>  <Activity> (17)
-3

$$$$
3-nitro-9-fluorenone
csChmFindW1207992328
[comments]
 17 19  0     0  0  0  0  0  0  1 V2000
    0.0000    3.5000    0.0000 C   0  0  0  0  0  0  0  0  0  0
    0.0000    2.1000    0.0000 C   0  0  0  0  0  0  0  0  0  0
    1.1667    1.4000    0.0000 C   0  0  0  0  0  0  0  0  0  0
    2.4267    2.1000    0.0000 C   0  0  0  0  0  0  0  0  0  0
    2.4267    3.5000    0.0000 C   0  0  0  0  0  0  0  0  0  0
    1.1667    4.1533    0.0000 C   0  0  0  0  0  0  0  0  0  0
    3.6400    1.4000    0.0000 C   0  0  0  0  0  0  0  0  0  0
    4.8067    2.1000    0.0000 C   0  0  0  0  0  0  0  0  0  0
    4.8067    3.5000    0.0000 C   0  0  0  0  0  0  0  0  0  0
    6.0667    1.4000    0.0000 C   0  0  0  0  0  0  0  0  0  0
    7.2800    2.1000    0.0000 C   0  0  0  0  0  0  0  0  0  0
    7.2800    3.5000    0.0000 C   0  0  0  0  0  0  0  0  0  0
    6.0667    4.1533    0.0000 C   0  0  0  0  0  0  0  0  0  0
    3.6400    0.0000    0.0000 O   0  0  0  0  0  0  0  0  0  0
    8.4467    4.2000    0.0000 N   0  3  0  0  0  0  0  0  0  0
    9.6600    3.5000    0.0000 O   0  5  0  0  0  0  0  0  0  0
    8.4467    5.6000    0.0000 O   0  0  0  0  0  0  0  0  0  0
  1  2  4  0  0  0  0
  2  3  4  0  0  0  0
  3  4  4  0  0  0  0
  4  5  4  0  0  0  0
  5  6  4  0  0  0  0
  1  6  4  0  0  0  0
  4  7  1  0  0  0  0
  7  8  1  0  0  0  0
  8  9  4  0  0  0  0
  5  9  1  0  0  0  0
  8 10  4  0  0  0  0
 10 11  4  0  0  0  0
 11 12  4  0  0  0  0
 12 13  4  0  0  0  0
  9 13  4  0  0  0  0
  7 14  2  0  0  0  0
 12 15  1  0  0  0  0
 15 16  1  0  0  0  0
 15 17  2  0  0  0  0
M  END
>  <Compound Name> (18)
3-nitro-9-fluorenone

>  <Formula> (18)
C13H7NO3

>  <LogP> (18)
3.06

>  <LUMO> (18)
-1.861

>  <MOL_ID> (18)
18

>  <Activity> (18)
2.13

$$$$
6-nitroquinoline
csChmFindW1207992328
[comments]
 13 14  0     0  0  0  0  0  0  1 V2000
    2.3787    0.6996    0.0000 C   0  0  0  0  0  0  0  0  0  0
    3.5913    0.0000    0.0000 C   0  0  0  0  0  0  0  0  0  0
    4.8040    0.6996    0.0000 C   0  0  0  0  0  0  0  0  0  0
    4.8040    2.0988    0.0000 C   0  0  0  0  0  0  0  0  0  0
    3.5913    2.7984    0.0000 C   0  0  0  0  0  0  0  0  0  0
    2.3787    2.0988    0.0000 C   0  0  0  0  0  0  0  0  0  0
    6.0167    0.0000    0.0000 N   0  0  0  0  0  0  0  0  0  0
    7.2293    0.6996    0.0000 C   0  0  0  0  0  0  0  0  0  0
    7.2293    2.0988    0.0000 C   0  0  0  0  0  0  0  0  0  0
    6.0167    2.7984    0.0000 C   0  0  0  0  0  0  0  0  0  0
    1.1660    2.7984    0.0000 N   0  3  0  0  0  0  0  0  0  0
    1.1660    4.1510    0.0000 O   0  5  0  0  0  0  0  0  0  0
    0.0000    2.0988    0.0000 O   0  0  0  0  0  0  0  0  0  0
  1  2  4  0  0  0  0
  2  3  4  0  0  0  0
  3  4  4  0  0  0  0
  4  5  4  0  0  0  0
  5  6  4  0  0  0  0
  1  6  4  0  0  0  0
  3  7  4  0  0  0  0
  7  8  4  0  0  0  0
  8  9  4  0  0  0  0
  9 10  4  0  0  0  0
  4 10  4  0  0  0  0
  6 11  1  0  0  0  0
 11 12  1  0  0  0  0
 11 13  2  0  0  0  0
M  END
>  <Compound Name> (19)
6-nitroquinoline

>  <Formula> (19)
C9H6N2O2

>  <LogP> (19)
1.84

>  <LUMO> (19)
-1.478

>  <MOL_ID> (19)
19

>  <Activity> (19)
-1.08

$$$$
2-cyano-7-nitrofluorene
csChmFindW1207992328
[comments]
 18 20  0     0  0  0  0  0  0  1 V2000
    2.3787    3.4981    0.0000 C   0  0  0  0  0  0  0  0  0  0
    2.3787    2.0988    0.0000 C   0  0  0  0  0  0  0  0  0  0
    3.5913    1.3992    0.0000 C   0  0  0  0  0  0  0  0  0  0
    4.8040    2.0988    0.0000 C   0  0  0  0  0  0  0  0  0  0
    4.8040    3.4981    0.0000 C   0  0  0  0  0  0  0  0  0  0
    3.5913    4.1977    0.0000 C   0  0  0  0  0  0  0  0  0  0
    6.0167    1.3992    0.0000 C   0  0  0  0  0  0  0  0  0  0
    7.2293    2.0988    0.0000 C   0  0  0  0  0  0  0  0  0  0
    7.2293    3.4981    0.0000 C   0  0  0  0  0  0  0  0  0  0
    8.4420    1.3992    0.0000 C   0  0  0  0  0  0  0  0  0  0
    9.6547    2.0988    0.0000 C   0  0  0  0  0  0  0  0  0  0
    9.6547    3.4981    0.0000 C   0  0  0  0  0  0  0  0  0  0
    8.4420    4.1977    0.0000 C   0  0  0  0  0  0  0  0  0  0
   10.8673    1.3992    0.0000 C   0  0  0  0  0  0  0  0  0  0
   12.0800    0.6996    0.0000 N   0  0  0  0  0  0  0  0  0  0
    1.1660    1.3992    0.0000 N   0  3  0  0  0  0  0  0  0  0
    0.0000    2.0988    0.0000 O   0  5  0  0  0  0  0  0  0  0
    1.1660    0.0000    0.0000 O   0  0  0  0  0  0  0  0  0  0
  1  2  4  0  0  0  0
  2  3  4  0  0  0  0
  3  4  4  0  0  0  0
  4  5  4  0  0  0  0
  5  6  4  0  0  0  0
  1  6  4  0  0  0  0
  4  7  1  0  0  0  0
  7  8  1  0  0  0  0
  8  9  4  0  0  0  0
  5  9  1  0  0  0  0
  8 10  4  0  0  0  0
 10 11  4  0  0  0  0
 11 12  4  0  0  0  0
 12 13  4  0  0  0  0
  9 13  4  0  0  0  0
 11 14  1  0  0  0  0
 14 15  3  0  0  0  0
  2 16  1  0  0  0  0
 16 17  1  0  0  0  0
 16 18  2  0  0  0  0
M  END
>  <Compound Name> (20)
2-cyano-7-nitrofluorene

>  <Formula> (20)
C14H8N2O2

>  <LogP> (20)
3.4

>  <LUMO> (20)
-1.764

>  <MOL_ID> (20)
20

>  <Activity> (20)
2.51

$$$$
4,3'-dinitrobiphenyl
csChmFindW1207992328
[comments]
 18 19  0     0  0  0  0  0  0  1 V2000
    2.0522    2.4253    0.0000 C   0  0  0  0  0  0  0  0  0  0
    1.3526    1.2127    0.0000 C   0  0  0  0  0  0  0  0  0  0
    2.0522    0.0000    0.0000 C   0  0  0  0  0  0  0  0  0  0
    3.4514    0.0000    0.0000 C   0  0  0  0  0  0  0  0  0  0
    4.1510    1.2127    0.0000 C   0  0  0  0  0  0  0  0  0  0
    3.4514    2.4253    0.0000 C   0  0  0  0  0  0  0  0  0  0
    5.5503    1.2127    0.0000 C   0  0  0  0  0  0  0  0  0  0
    6.2499    0.0000    0.0000 C   0  0  0  0  0  0  0  0  0  0
    7.6491    0.0000    0.0000 C   0  0  0  0  0  0  0  0  0  0
    8.3487    1.2127    0.0000 C   0  0  0  0  0  0  0  0  0  0
    7.6491    2.4253    0.0000 C   0  0  0  0  0  0  0  0  0  0
    6.2499    2.4253    0.0000 C   0  0  0  0  0  0  0  0  0  0
    9.7480    1.2127    0.0000 N   0  3  0  0  0  0  0  0  0  0
   10.4476    0.0000    0.0000 O   0  5  0  0  0  0  0  0  0  0
   10.4476    2.4253    0.0000 O   0  0  0  0  0  0  0  0  0  0
    1.3526    3.6380    0.0000 N   0  3  0  0  0  0  0  0  0  0
    2.0522    4.8507    0.0000 O   0  5  0  0  0  0  0  0  0  0
    0.0000    3.6380    0.0000 O   0  0  0  0  0  0  0  0  0  0
  1  2  4  0  0  0  0
  2  3  4  0  0  0  0
  3  4  4  0  0  0  0
  4  5  4  0  0  0  0
  5  6  4  0  0  0  0
  1  6  4  0  0  0  0
  5  7  1  0  0  0  0
  7  8  4  0  0  0  0
  8  9  4  0  0  0  0
  9 10  4  0  0  0  0
 10 11  4  0  0  0  0
 11 12  4  0  0  0  0
  7 12  4  0  0  0  0
 10 13  1  0  0  0  0
 13 14  1  0  0  0  0
 13 15  2  0  0  0  0
  1 16  1  0  0  0  0
 16 17  1  0  0  0  0
 16 18  2  0  0  0  0
M  END
>  <Compound Name> (21)
4,3'-dinitrobiphenyl

>  <Formula> (21)
C12H8N2O4

>  <LogP> (21)
3.52

>  <LUMO> (21)
-1.665

>  <MOL_ID> (21)
21

>  <Activity> (21)
0.23

$$$$
2-iodo-7-nitrofluorene
csChmFindW1207992328
[comments]
 17 19  0     0  0  0  0  0  0  1 V2000
    2.3333    3.5000    0.0000 C   0  0  0  0  0  0  0  0  0  0
    2.3333    2.1000    0.0000 C   0  0  0  0  0  0  0  0  0  0
    3.5467    1.4000    0.0000 C   0  0  0  0  0  0  0  0  0  0
    4.7600    2.1000    0.0000 C   0  0  0  0  0  0  0  0  0  0
    4.7600    3.5000    0.0000 C   0  0  0  0  0  0  0  0  0  0
    3.5467    4.1533    0.0000 C   0  0  0  0  0  0  0  0  0  0
    5.9733    1.4000    0.0000 C   0  0  0  0  0  0  0  0  0  0
    7.1867    2.1000    0.0000 C   0  0  0  0  0  0  0  0  0  0
    7.1867    3.5000    0.0000 C   0  0  0  0  0  0  0  0  0  0
    8.4000    1.4000    0.0000 C   0  0  0  0  0  0  0  0  0  0
    9.6133    2.1000    0.0000 C   0  0  0  0  0  0  0  0  0  0
    9.6133    3.5000    0.0000 C   0  0  0  0  0  0  0  0  0  0
    8.4000    4.1533    0.0000 C   0  0  0  0  0  0  0  0  0  0
    1.1667    1.4000    0.0000 N   0  3  0  0  0  0  0  0  0  0
   -0.0000    2.1000    0.0000 O   0  5  0  0  0  0  0  0  0  0
    1.1667   -0.0000    0.0000 O   0  0  0  0  0  0  0  0  0  0
   10.8267    1.4000    0.0000 I   0  0  0  0  0  0  0  0  0  0
  1  2  4  0  0  0  0
  2  3  4  0  0  0  0
  3  4  4  0  0  0  0
  4  5  4  0  0  0  0
  5  6  4  0  0  0  0
  1  6  4  0  0  0  0
  4  7  1  0  0  0  0
  7  8  1  0  0  0  0
  8  9  4  0  0  0  0
  5  9  1  0  0  0  0
  8 10  4  0  0  0  0
 10 11  4  0  0  0  0
 11 12  4  0  0  0  0
 12 13  4  0  0  0  0
  9 13  4  0  0  0  0
  2 14  1  0  0  0  0
 14 15  1  0  0  0  0
 14 16  2  0  0  0  0
 11 17  1  0  0  0  0
M  END
>  <Compound Name> (22)
2-iodo-7-nitrofluorene

>  <Formula> (22)
C13H8INO2

>  <LogP> (22)
5.09

>  <LUMO> (22)
-1.602

>  <MOL_ID> (22)
22

>  <Activity> (22)
2.97

$$$$
2-nitrobenz[j]aceanthrylene
csChmFindW1207992328
[comments]
 23 27  0     0  0  0  0  0  0  1 V2000
    6.0167    4.1977    0.0000 C   0  0  0  0  0  0  0  0  0  0
    6.0167    2.7985    0.0000 C   0  0  0  0  0  0  0  0  0  0
    7.2294    2.0988    0.0000 C   0  0  0  0  0  0  0  0  0  0
    8.4420    2.7985    0.0000 C   0  0  0  0  0  0  0  0  0  0
    8.4420    4.1977    0.0000 C   0  0  0  0  0  0  0  0  0  0
    7.2294    4.8973    0.0000 C   0  0  0  0  0  0  0  0  0  0
    4.8040    4.8973    0.0000 C   0  0  0  0  0  0  0  0  0  0
    3.5914    4.1977    0.0000 C   0  0  0  0  0  0  0  0  0  0
    3.5914    2.7985    0.0000 C   0  0  0  0  0  0  0  0  0  0
    4.8040    2.0988    0.0000 C   0  0  0  0  0  0  0  0  0  0
    7.2294    6.2965    0.0000 C   0  0  0  0  0  0  0  0  0  0
    4.8040    6.2965    0.0000 C   0  0  0  0  0  0  0  0  0  0
    2.3787    4.8973    0.0000 C   0  0  0  0  0  0  0  0  0  0
    1.1660    4.1977    0.0000 C   0  0  0  0  0  0  0  0  0  0
    1.1660    2.7985    0.0000 C   0  0  0  0  0  0  0  0  0  0
    2.3787    2.0988    0.0000 C   0  0  0  0  0  0  0  0  0  0
   -0.0000    2.0988    0.0000 C   0  0  0  0  0  0  0  0  0  0
   -0.0000    0.6996    0.0000 C   0  0  0  0  0  0  0  0  0  0
    1.1660   -0.0000    0.0000 C   0  0  0  0  0  0  0  0  0  0
    2.3787    0.6996    0.0000 C   0  0  0  0  0  0  0  0  0  0
    8.2088    7.2760    0.0000 N   0  3  0  0  0  0  0  0  0  0
    9.5614    6.9029    0.0000 O   0  5  0  0  0  0  0  0  0  0
    7.8357    8.6286    0.0000 O   0  0  0  0  0  0  0  0  0  0
  1  2  4  0  0  0  0
  2  3  4  0  0  0  0
  3  4  4  0  0  0  0
  4  5  4  0  0  0  0
  5  6  4  0  0  0  0
  1  6  4  0  0  0  0
  1  7  4  0  0  0  0
  7  8  4  0  0  0  0
  8  9  4  0  0  0  0
  9 10  4  0  0  0  0
  2 10  4  0  0  0  0
  6 11  1  0  0  0  0
  7 12  1  0  0  0  0
 11 12  2  0  0  0  0
  8 13  4  0  0  0  0
 13 14  4  0  0  0  0
 14 15  4  0  0  0  0
 15 16  4  0  0  0  0
  9 16  4  0  0  0  0
 15 17  4  0  0  0  0
 17 18  4  0  0  0  0
 18 19  4  0  0  0  0
 19 20  4  0  0  0  0
 16 20  4  0  0  0  0
 11 21  1  0  0  0  0
 21 22  1  0  0  0  0
 21 23  2  0  0  0  0
M  END
>  <Compound Name> (23)
2-nitrobenz[j]aceanthrylene

>  <Formula> (23)
C20H11NO2

>  <LogP> (23)
5.07

>  <LUMO> (23)
-2.164

>  <MOL_ID> (23)
23

>  <Activity> (23)
0.86

$$$$
1-nitrocoronene
csChmFindW1207992328
[comments]
 27 33  0     0  0  0  0  0  0  1 V2000
    3.5914    4.8973    0.0000 C   0  0  0  0  0  0  0  0  0  0
    2.3787    4.1977    0.0000 C   0  0  0  0  0  0  0  0  0  0
    2.3787    2.7985    0.0000 C   0  0  0  0  0  0  0  0  0  0
    3.5914    2.0988    0.0000 C   0  0  0  0  0  0  0  0  0  0
    4.8040    2.7985    0.0000 C   0  0  0  0  0  0  0  0  0  0
    4.8040    4.1977    0.0000 C   0  0  0  0  0  0  0  0  0  0
    3.5914    6.2965    0.0000 C   0  0  0  0  0  0  0  0  0  0
    2.3787    6.9962    0.0000 C   0  0  0  0  0  0  0  0  0  0
    1.1660    6.2965    0.0000 C   0  0  0  0  0  0  0  0  0  0
    1.1660    4.8973    0.0000 C   0  0  0  0  0  0  0  0  0  0
    6.0167    2.0988    0.0000 C   0  0  0  0  0  0  0  0  0  0
    7.2294    2.7985    0.0000 C   0  0  0  0  0  0  0  0  0  0
    7.2294    4.1977    0.0000 C   0  0  0  0  0  0  0  0  0  0
    6.0167    4.8973    0.0000 C   0  0  0  0  0  0  0  0  0  0
    1.1660    2.0988    0.0000 C   0  0  0  0  0  0  0  0  0  0
    1.1660    0.6996    0.0000 C   0  0  0  0  0  0  0  0  0  0
    2.3787    0.0000    0.0000 C   0  0  0  0  0  0  0  0  0  0
    3.5914    0.6996    0.0000 C   0  0  0  0  0  0  0  0  0  0
   -0.0000    4.1977    0.0000 C   0  0  0  0  0  0  0  0  0  0
   -0.0000    2.7985    0.0000 C   0  0  0  0  0  0  0  0  0  0
    6.0167    6.2965    0.0000 C   0  0  0  0  0  0  0  0  0  0
    4.8040    6.9962    0.0000 C   0  0  0  0  0  0  0  0  0  0
    4.8040    0.0000    0.0000 C   0  0  0  0  0  0  0  0  0  0
    6.0167    0.6996    0.0000 C   0  0  0  0  0  0  0  0  0  0
    4.8040    8.3954    0.0000 N   0  3  0  0  0  0  0  0  0  0
    6.0167    9.0483    0.0000 O   0  5  0  0  0  0  0  0  0  0
    3.5914    9.0483    0.0000 O   0  0  0  0  0  0  0  0  0  0
  1  2  4  0  0  0  0
  2  3  4  0  0  0  0
  3  4  4  0  0  0  0
  4  5  4  0  0  0  0
  5  6  4  0  0  0  0
  1  6  4  0  0  0  0
  1  7  4  0  0  0  0
  7  8  4  0  0  0  0
  8  9  4  0  0  0  0
  9 10  4  0  0  0  0
  2 10  4  0  0  0  0
  5 11  4  0  0  0  0
 11 12  4  0  0  0  0
 12 13  4  0  0  0  0
 13 14  4  0  0  0  0
  6 14  4  0  0  0  0
  3 15  4  0  0  0  0
 15 16  4  0  0  0  0
 16 17  4  0  0  0  0
 17 18  4  0  0  0  0
  4 18  4  0  0  0  0
 10 19  4  0  0  0  0
 19 20  4  0  0  0  0
 15 20  4  0  0  0  0
 14 21  4  0  0  0  0
 21 22  4  0  0  0  0
  7 22  4  0  0  0  0
 18 23  4  0  0  0  0
 23 24  4  0  0  0  0
 11 24  4  0  0  0  0
 22 25  1  0  0  0  0
 25 26  1  0  0  0  0
 25 27  2  0  0  0  0
M  END
>  <Compound Name> (24)
1-nitrocoronene

>  <Formula> (24)
C24H11NO2

>  <LogP> (24)
6.79

>  <LUMO> (24)
-1.728

>  <MOL_ID> (24)
24

>  <Activity> (24)
0.45

$$$$
2-hydroxy-7-nitrofluorene
csChmFindW1207992328
[comments]
 17 19  0     0  0  0  0  0  0  1 V2000
    2.3333    3.5000    0.0000 C   0  0  0  0  0  0  0  0  0  0
    2.3333    2.1000    0.0000 C   0  0  0  0  0  0  0  0  0  0
    3.5467    1.4000    0.0000 C   0  0  0  0  0  0  0  0  0  0
    4.7600    2.1000    0.0000 C   0  0  0  0  0  0  0  0  0  0
    4.7600    3.5000    0.0000 C   0  0  0  0  0  0  0  0  0  0
    3.5467    4.1533    0.0000 C   0  0  0  0  0  0  0  0  0  0
    5.9733    1.4000    0.0000 C   0  0  0  0  0  0  0  0  0  0
    7.1867    2.1000    0.0000 C   0  0  0  0  0  0  0  0  0  0
    7.1867    3.5000    0.0000 C   0  0  0  0  0  0  0  0  0  0
    8.4000    1.4000    0.0000 C   0  0  0  0  0  0  0  0  0  0
    9.6133    2.1000    0.0000 C   0  0  0  0  0  0  0  0  0  0
    9.6133    3.5000    0.0000 C   0  0  0  0  0  0  0  0  0  0
    8.4000    4.1533    0.0000 C   0  0  0  0  0  0  0  0  0  0
    1.1667    1.4000    0.0000 N   0  3  0  0  0  0  0  0  0  0
   -0.0000    2.1000    0.0000 O   0  5  0  0  0  0  0  0  0  0
    1.1667   -0.0000    0.0000 O   0  0  0  0  0  0  0  0  0  0
   10.8267    1.4000    0.0000 O   0  0  0  0  0  0  0  0  0  0
  1  2  4  0  0  0  0
  2  3  4  0  0  0  0
  3  4  4  0  0  0  0
  4  5  4  0  0  0  0
  5  6  4  0  0  0  0
  1  6  4  0  0  0  0
  4  7  1  0  0  0  0
  7  8  1  0  0  0  0
  8  9  4  0  0  0  0
  5  9  1  0  0  0  0
  8 10  4  0  0  0  0
 10 11  4  0  0  0  0
 11 12  4  0  0  0  0
 12 13  4  0  0  0  0
  9 13  4  0  0  0  0
  2 14  1  0  0  0  0
 14 15  1  0  0  0  0
 14 16  2  0  0  0  0
 11 17  1  0  0  0  0
M  END
>  <Compound Name> (25)
2-hydroxy-7-nitrofluorene

>  <Formula> (25)
C13H9NO3

>  <LogP> (25)
3.43

>  <LUMO> (25)
-1.398

>  <MOL_ID> (25)
25

>  <Activity> (25)
1.68

$$$$
1-chloro-2,4-dinitrobenzene
csChmFindW1207992328
[comments]
 13 13  0     0  0  0  0  0  0  1 V2000
    2.0533    3.6400    0.0000 C   0  0  0  0  0  0  0  0  0  0
    2.7533    2.4267    0.0000 C   0  0  0  0  0  0  0  0  0  0
    4.1533    2.4267    0.0000 C   0  0  0  0  0  0  0  0  0  0
    4.8533    3.6400    0.0000 C   0  0  0  0  0  0  0  0  0  0
    4.1533    4.8533    0.0000 C   0  0  0  0  0  0  0  0  0  0
    2.7533    4.8533    0.0000 C   0  0  0  0  0  0  0  0  0  0
    6.2533    3.6400    0.0000 Cl  0  0  0  0  0  0  0  0  0  0
    4.8533    1.2133    0.0000 N   0  3  0  0  0  0  0  0  0  0
    4.1533    0.0000    0.0000 O   0  5  0  0  0  0  0  0  0  0
    6.2533    1.2133    0.0000 O   0  0  0  0  0  0  0  0  0  0
    0.6533    3.6400    0.0000 N   0  3  0  0  0  0  0  0  0  0
   -0.0000    4.8533    0.0000 O   0  5  0  0  0  0  0  0  0  0
   -0.0000    2.4267    0.0000 O   0  0  0  0  0  0  0  0  0  0
  1  2  4  0  0  0  0
  2  3  4  0  0  0  0
  3  4  4  0  0  0  0
  4  5  4  0  0  0  0
  5  6  4  0  0  0  0
  1  6  4  0  0  0  0
  4  7  1  0  0  0  0
  3  8  1  0  0  0  0
  8  9  1  0  0  0  0
  8 10  2  0  0  0  0
  1 11  1  0  0  0  0
 11 12  1  0  0  0  0
 11 13  2  0  0  0  0
M  END
>  <Compound Name> (26)
1-chloro-2,4-dinitrobenzene

>  <Formula> (26)
C6H3ClN2O4

>  <LogP> (26)
2.17

>  <LUMO> (26)
-2.072

>  <MOL_ID> (26)
26

>  <Activity> (26)
0.3

$$$$
1-nitrobenzo[a]pyrene
csChmFindW1207992328
[comments]
 23 27  0     0  0  0  0  0  0  1 V2000
   -0.0000    2.0989    0.0000 C   0  0  0  0  0  0  0  0  0  0
   -0.0000    0.6996    0.0000 C   0  0  0  0  0  0  0  0  0  0
    1.1660    0.0000    0.0000 C   0  0  0  0  0  0  0  0  0  0
    2.3787    0.6996    0.0000 C   0  0  0  0  0  0  0  0  0  0
    2.3787    2.0989    0.0000 C   0  0  0  0  0  0  0  0  0  0
    1.1660    2.7985    0.0000 C   0  0  0  0  0  0  0  0  0  0
    3.5914    0.0000    0.0000 C   0  0  0  0  0  0  0  0  0  0
    4.8040    0.6996    0.0000 C   0  0  0  0  0  0  0  0  0  0
    4.8040    2.0989    0.0000 C   0  0  0  0  0  0  0  0  0  0
    3.5914    2.7985    0.0000 C   0  0  0  0  0  0  0  0  0  0
    6.0167    0.0000    0.0000 C   0  0  0  0  0  0  0  0  0  0
    7.2294    0.6996    0.0000 C   0  0  0  0  0  0  0  0  0  0
    7.2294    2.0989    0.0000 C   0  0  0  0  0  0  0  0  0  0
    6.0167    2.7985    0.0000 C   0  0  0  0  0  0  0  0  0  0
    6.0167    4.1977    0.0000 C   0  0  0  0  0  0  0  0  0  0
    4.8040    4.8973    0.0000 C   0  0  0  0  0  0  0  0  0  0
    3.5914    4.1977    0.0000 C   0  0  0  0  0  0  0  0  0  0
    8.4420    2.7985    0.0000 C   0  0  0  0  0  0  0  0  0  0
    8.4420    4.1977    0.0000 C   0  0  0  0  0  0  0  0  0  0
    7.2294    4.8973    0.0000 C   0  0  0  0  0  0  0  0  0  0
    7.2294    6.2965    0.0000 N   0  3  0  0  0  0  0  0  0  0
    8.4420    6.9495    0.0000 O   0  5  0  0  0  0  0  0  0  0
    6.0167    6.9495    0.0000 O   0  0  0  0  0  0  0  0  0  0
  1  2  4  0  0  0  0
  2  3  4  0  0  0  0
  3  4  4  0  0  0  0
  4  5  4  0  0  0  0
  5  6  4  0  0  0  0
  1  6  4  0  0  0  0
  4  7  4  0  0  0  0
  7  8  4  0  0  0  0
  8  9  4  0  0  0  0
  9 10  4  0  0  0  0
  5 10  4  0  0  0  0
  8 11  4  0  0  0  0
 11 12  4  0  0  0  0
 12 13  4  0  0  0  0
 13 14  4  0  0  0  0
  9 14  4  0  0  0  0
 14 15  4  0  0  0  0
 15 16  4  0  0  0  0
 16 17  4  0  0  0  0
 10 17  4  0  0  0  0
 13 18  4  0  0  0  0
 18 19  4  0  0  0  0
 19 20  4  0  0  0  0
 15 20  4  0  0  0  0
 20 21  1  0  0  0  0
 21 22  1  0  0  0  0
 21 23  2  0  0  0  0
M  END
>  <Compound Name> (27)
1-nitrobenzo[a]pyrene

>  <Formula> (27)
C20H11NO2

>  <LogP> (27)
5.87

>  <LUMO> (27)
-1.801

>  <MOL_ID> (27)
27

>  <Activity> (27)
2.63

$$$$
2-fluoro-7-nitrofluorene
csChmFindW1207992328
[comments]
 17 19  0     0  0  0  0  0  0  1 V2000
    2.3333    3.5000    0.0000 C   0  0  0  0  0  0  0  0  0  0
    2.3333    2.1000    0.0000 C   0  0  0  0  0  0  0  0  0  0
    3.5467    1.4000    0.0000 C   0  0  0  0  0  0  0  0  0  0
    4.7600    2.1000    0.0000 C   0  0  0  0  0  0  0  0  0  0
    4.7600    3.5000    0.0000 C   0  0  0  0  0  0  0  0  0  0
    3.5467    4.1533    0.0000 C   0  0  0  0  0  0  0  0  0  0
    5.9733    1.4000    0.0000 C   0  0  0  0  0  0  0  0  0  0
    7.1867    2.1000    0.0000 C   0  0  0  0  0  0  0  0  0  0
    7.1867    3.5000    0.0000 C   0  0  0  0  0  0  0  0  0  0
    8.4000    1.4000    0.0000 C   0  0  0  0  0  0  0  0  0  0
    9.6133    2.1000    0.0000 C   0  0  0  0  0  0  0  0  0  0
    9.6133    3.5000    0.0000 C   0  0  0  0  0  0  0  0  0  0
    8.4000    4.1533    0.0000 C   0  0  0  0  0  0  0  0  0  0
    1.1667    1.4000    0.0000 N   0  3  0  0  0  0  0  0  0  0
   -0.0000    2.1000    0.0000 O   0  5  0  0  0  0  0  0  0  0
    1.1667   -0.0000    0.0000 O   0  0  0  0  0  0  0  0  0  0
   10.8267    1.4000    0.0000 F   0  0  0  0  0  0  0  0  0  0
  1  2  4  0  0  0  0
  2  3  4  0  0  0  0
  3  4  4  0  0  0  0
  4  5  4  0  0  0  0
  5  6  4  0  0  0  0
  1  6  4  0  0  0  0
  4  7  1  0  0  0  0
  7  8  1  0  0  0  0
  8  9  4  0  0  0  0
  5  9  1  0  0  0  0
  8 10  4  0  0  0  0
 10 11  4  0  0  0  0
 11 12  4  0  0  0  0
 12 13  4  0  0  0  0
  9 13  4  0  0  0  0
  2 14  1  0  0  0  0
 14 15  1  0  0  0  0
 14 16  2  0  0  0  0
 11 17  1  0  0  0  0
M  END
>  <Compound Name> (28)
2-fluoro-7-nitrofluorene

>  <Formula> (28)
C13H8FNO2

>  <LogP> (28)
4.11

>  <LUMO> (28)
-1.558

>  <MOL_ID> (28)
28

>  <Activity> (28)
2.68

$$$$
2,4,7-trinitro-9-fluorenone
csChmFindW1207992328
[comments]
 23 25  0     0  0  0  0  0  0  1 V2000
    2.3800    3.5000    0.0000 C   0  0  0  0  0  0  0  0  0  0
    2.3800    2.1000    0.0000 C   0  0  0  0  0  0  0  0  0  0
    3.5933    1.4000    0.0000 C   0  0  0  0  0  0  0  0  0  0
    4.8066    2.1000    0.0000 C   0  0  0  0  0  0  0  0  0  0
    4.8066    3.5000    0.0000 C   0  0  0  0  0  0  0  0  0  0
    3.5933    4.1533    0.0000 C   0  0  0  0  0  0  0  0  0  0
    6.0200    1.4000    0.0000 C   0  0  0  0  0  0  0  0  0  0
    7.2333    2.1000    0.0000 C   0  0  0  0  0  0  0  0  0  0
    7.2333    3.5000    0.0000 C   0  0  0  0  0  0  0  0  0  0
    8.4466    1.4000    0.0000 C   0  0  0  0  0  0  0  0  0  0
    9.6600    2.1000    0.0000 C   0  0  0  0  0  0  0  0  0  0
    9.6600    3.5000    0.0000 C   0  0  0  0  0  0  0  0  0  0
    8.4466    4.1533    0.0000 C   0  0  0  0  0  0  0  0  0  0
    6.0200   -0.0000    0.0000 O   0  0  0  0  0  0  0  0  0  0
    1.1667    1.4000    0.0000 N   0  3  0  0  0  0  0  0  0  0
    0.0000    2.1000    0.0000 O   0  5  0  0  0  0  0  0  0  0
    1.1667   -0.0000    0.0000 O   0  0  0  0  0  0  0  0  0  0
   10.8733    1.4000    0.0000 N   0  3  0  0  0  0  0  0  0  0
   10.8733   -0.0000    0.0000 O   0  5  0  0  0  0  0  0  0  0
   12.0866    2.1000    0.0000 O   0  0  0  0  0  0  0  0  0  0
    8.4466    5.5533    0.0000 N   0  3  0  0  0  0  0  0  0  0
    9.6600    6.2066    0.0000 O   0  5  0  0  0  0  0  0  0  0
    7.2333    6.2066    0.0000 O   0  0  0  0  0  0  0  0  0  0
  1  2  4  0  0  0  0
  2  3  4  0  0  0  0
  3  4  4  0  0  0  0
  4  5  4  0  0  0  0
  5  6  4  0  0  0  0
  1  6  4  0  0  0  0
  4  7  1  0  0  0  0
  7  8  1  0  0  0  0
  8  9  4  0  0  0  0
  5  9  1  0  0  0  0
  8 10  4  0  0  0  0
 10 11  4  0  0  0  0
 11 12  4  0  0  0  0
 12 13  4  0  0  0  0
  9 13  4  0  0  0  0
  7 14  2  0  0  0  0
  2 15  1  0  0  0  0
 15 16  1  0  0  0  0
 15 17  2  0  0  0  0
 11 18  1  0  0  0  0
 18 19  1  0  0  0  0
 18 20  2  0  0  0  0
 13 21  1  0  0  0  0
 21 22  1  0  0  0  0
 21 23  2  0  0  0  0
M  END
>  <Compound Name> (29)
2,4,7-trinitro-9-fluorenone

>  <Formula> (29)
C13H5N3O7

>  <LogP> (29)
2.42

>  <LUMO> (29)
-2.837

>  <MOL_ID> (29)
29

>  <Activity> (29)
3.41

$$$$
4-nitrobenz[k]acephenanthrylene
csChmFindW1207992328
[comments]
 23 27  0     0  0  0  0  0  0  1 V2000
    3.4981    6.2965    0.0000 C   0  0  0  0  0  0  0  0  0  0
    3.4981    4.8973    0.0000 C   0  0  0  0  0  0  0  0  0  0
    4.7107    4.1977    0.0000 C   0  0  0  0  0  0  0  0  0  0
    5.9234    4.8973    0.0000 C   0  0  0  0  0  0  0  0  0  0
    5.9234    6.2965    0.0000 C   0  0  0  0  0  0  0  0  0  0
    4.7107    6.9961    0.0000 C   0  0  0  0  0  0  0  0  0  0
    2.2854    6.9961    0.0000 C   0  0  0  0  0  0  0  0  0  0
    1.0727    6.2965    0.0000 C   0  0  0  0  0  0  0  0  0  0
    1.0727    4.8973    0.0000 C   0  0  0  0  0  0  0  0  0  0
    2.2854    4.1977    0.0000 C   0  0  0  0  0  0  0  0  0  0
    4.7107    8.3953    0.0000 C   0  0  0  0  0  0  0  0  0  0
    2.2854    8.3953    0.0000 C   0  0  0  0  0  0  0  0  0  0
    7.1361    2.7984    0.0000 C   0  0  0  0  0  0  0  0  0  0
    5.9234    2.0988    0.0000 C   0  0  0  0  0  0  0  0  0  0
    5.9234    0.6996    0.0000 C   0  0  0  0  0  0  0  0  0  0
    7.1361    0.0000    0.0000 C   0  0  0  0  0  0  0  0  0  0
    8.3487    0.6996    0.0000 C   0  0  0  0  0  0  0  0  0  0
    8.3487    2.0988    0.0000 C   0  0  0  0  0  0  0  0  0  0
    7.1361    4.1977    0.0000 C   0  0  0  0  0  0  0  0  0  0
    4.7107    2.7984    0.0000 C   0  0  0  0  0  0  0  0  0  0
    1.3059    9.3748    0.0000 N   0  3  0  0  0  0  0  0  0  0
    1.6791   10.7274    0.0000 O   0  5  0  0  0  0  0  0  0  0
    0.0000    9.0017    0.0000 O   0  0  0  0  0  0  0  0  0  0
  1  2  4  0  0  0  0
  2  3  4  0  0  0  0
  3  4  4  0  0  0  0
  4  5  4  0  0  0  0
  5  6  4  0  0  0  0
  1  6  4  0  0  0  0
  1  7  4  0  0  0  0
  7  8  4  0  0  0  0
  8  9  4  0  0  0  0
  9 10  4  0  0  0  0
  2 10  4  0  0  0  0
  6 11  1  0  0  0  0
  7 12  1  0  0  0  0
 11 12  2  0  0  0  0
 13 14  4  0  0  0  0
 14 15  4  0  0  0  0
 15 16  4  0  0  0  0
 16 17  4  0  0  0  0
 17 18  4  0  0  0  0
 13 18  4  0  0  0  0
 13 19  4  0  0  0  0
  4 19  4  0  0  0  0
  3 20  4  0  0  0  0
 14 20  4  0  0  0  0
 12 21  1  0  0  0  0
 21 22  1  0  0  0  0
 21 23  2  0  0  0  0
M  END
>  <Compound Name> (30)
4-nitrobenz[k]acephenanthrylene

>  <Formula> (30)
C20H11NO2

>  <LogP> (30)
5.07

>  <LUMO> (30)
-2.005

>  <MOL_ID> (30)
30

>  <Activity> (30)
0.67

$$$$
