2-nitrophenanthrene
csChmFindW1207992328
[comments]
 17 19  0     0  0  0  0  0  0  1 V2000
    0.6533    2.4267    0.0000 C   0  0  0  0  0  0  0  0  0  0
    0.0000    1.2133    0.0000 C   0  0  0  0  0  0  0  0  0  0
    0.6533   -0.0000    0.0000 C   0  0  0  0  0  0  0  0  0  0
    2.0533   -0.0000    0.0000 C   0  0  0  0  0  0  0  0  0  0
    2.7533    1.2133    0.0000 C   0  0  0  0  0  0  0  0  0  0
    2.0533    2.4267    0.0000 C   0  0  0  0  0  0  0  0  0  0
    4.1533    1.2133    0.0000 C   0  0  0  0  0  0  0  0  0  0
    4.8533    2.4267    0.0000 C   0  0  0  0  0  0  0  0  0  0
    4.1533    3.5933    0.0000 C   0  0  0  0  0  0  0  0  0  0
    2.7533    3.5933    0.0000 C   0  0  0  0  0  0  0  0  0  0
    4.8533   -0.0000    0.0000 C   0  0  0  0  0  0  0  0  0  0
    6.2533   -0.0000    0.0000 C   0  0  0  0  0  0  0  0  0  0
    7.0000    1.2133    0.0000 C   0  0  0  0  0  0  0  0  0  0
    6.2533    2.4267    0.0000 C   0  0  0  0  0  0  0  0  0  0
    8.4000    1.2133    0.0000 N   0  3  0  0  0  0  0  0  0  0
    9.1000   -0.0000    0.0000 O   0  5  0  0  0  0  0  0  0  0
    9.1000    2.4267    0.0000 O   0  0  0  0  0  0  0  0  0  0
  1  2  4  0  0  0  0
  2  3  4  0  0  0  0
  3  4  4  0  0  0  0
  4  5  4  0  0  0  0
  5  6  4  0  0  0  0
  1  6  4  0  0  0  0
  5  7  4  0  0  0  0
  7  8  4  0  0  0  0
  8  9  4  0  0  0  0
  9 10  4  0  0  0  0
  6 10  4  0  0  0  0
  7 11  4  0  0  0  0
 11 12  4  0  0  0  0
 12 13  4  0  0  0  0
 13 14  4  0  0  0  0
  8 14  4  0  0  0  0
 13 15  1  0  0  0  0
 15 16  1  0  0  0  0
 15 17  2  0  0  0  0
M  END
>  <Compound Name> (1)
2-nitrophenanthrene

>  <Formula> (1)
C14H9NO2

>  <LogP> (1)
4.23

>  <LUMO> (1)
-1.246

>  <MOL_ID> (1)
1

>  <Activity> (1)
2.11

$$$$
8-nitroquinoline
csChmFindW1207992328
[comments]
 13 14  0     0  0  0  0  0  0  1 V2000
   -0.0000    2.7985    0.0000 C   0  0  0  0  0  0  0  0  0  0
    1.1660    2.0988    0.0000 C   0  0  0  0  0  0  0  0  0  0
    2.3787    2.7985    0.0000 C   0  0  0  0  0  0  0  0  0  0
    2.3787    4.1977    0.0000 C   0  0  0  0  0  0  0  0  0  0
    1.1660    4.8973    0.0000 C   0  0  0  0  0  0  0  0  0  0
   -0.0000    4.1977    0.0000 C   0  0  0  0  0  0  0  0  0  0
    3.5913    2.0988    0.0000 N   0  0  0  0  0  0  0  0  0  0
    4.8040    2.7985    0.0000 C   0  0  0  0  0  0  0  0  0  0
    4.8040    4.1977    0.0000 C   0  0  0  0  0  0  0  0  0  0
    3.5913    4.8973    0.0000 C   0  0  0  0  0  0  0  0  0  0
    1.1660    0.6996    0.0000 N   0  3  0  0  0  0  0  0  0  0
   -0.0000    0.0000    0.0000 O   0  5  0  0  0  0  0  0  0  0
    2.3787    0.0000    0.0000 O   0  0  0  0  0  0  0  0  0  0
  1  2  4  0  0  0  0
  2  3  4  0  0  0  0
  3  4  4  0  0  0  0
  4  5  4  0  0  0  0
  5  6  4  0  0  0  0
  1  6  4  0  0  0  0
  3  7  4  0  0  0  0
  7  8  4  0  0  0  0
  8  9  4  0  0  0  0
  9 10  4  0  0  0  0
  4 10  4  0  0  0  0
  2 11  1  0  0  0  0
 11 12  1  0  0  0  0
 11 13  2  0  0  0  0
M  END
>  <Compound Name> (2)
8-nitroquinoline

>  <Formula> (2)
C9H6N2O2

>  <LogP> (2)
1.44

>  <LUMO> (2)
-1.429

>  <MOL_ID> (2)
2

>  <Activity> (2)
-1.24

$$$$
5-nitroquinoline
csChmFindW1207992328
[comments]
 13 14  0     0  0  0  0  0  0  1 V2000
   -0.0000    0.6996    0.0000 C   0  0  0  0  0  0  0  0  0  0
    1.1660    0.0000    0.0000 C   0  0  0  0  0  0  0  0  0  0
    2.3787    0.6996    0.0000 C   0  0  0  0  0  0  0  0  0  0
    2.3787    2.0989    0.0000 C   0  0  0  0  0  0  0  0  0  0
    1.1660    2.7985    0.0000 C   0  0  0  0  0  0  0  0  0  0
   -0.0000    2.0989    0.0000 C   0  0  0  0  0  0  0  0  0  0
    3.5914    0.0000    0.0000 N   0  0  0  0  0  0  0  0  0  0
    4.8040    0.6996    0.0000 C   0  0  0  0  0  0  0  0  0  0
    4.8040    2.0989    0.0000 C   0  0  0  0  0  0  0  0  0  0
    3.5914    2.7985    0.0000 C   0  0  0  0  0  0  0  0  0  0
    1.1660    4.1977    0.0000 N   0  3  0  0  0  0  0  0  0  0
    2.3787    4.8973    0.0000 O   0  5  0  0  0  0  0  0  0  0
   -0.0000    4.8973    0.0000 O   0  0  0  0  0  0  0  0  0  0
  1  2  4  0  0  0  0
  2  3  4  0  0  0  0
  3  4  4  0  0  0  0
  4  5  4  0  0  0  0
  5  6  4  0  0  0  0
  1  6  4  0  0  0  0
  3  7  4  0  0  0  0
  7  8  4  0  0  0  0
  8  9  4  0  0  0  0
  9 10  4  0  0  0  0
  4 10  4  0  0  0  0
  5 11  1  0  0  0  0
 11 12  1  0  0  0  0
 11 13  2  0  0  0  0
M  END
>  <Compound Name> (3)
5-nitroquinoline

>  <Formula> (3)
C9H6N2O2

>  <LogP> (3)
1.86

>  <LUMO> (3)
-1.456

>  <MOL_ID> (3)
3

>  <Activity> (3)
-0.96

$$$$
1-nitrofluoranthene
csChmFindW1207992328
[comments]
 19 22  0     0  0  0  0  0  0  1 V2000
    2.2867    2.0067    0.0000 C   0  0  0  0  0  0  0  0  0  0
    2.2867    0.7000    0.0000 C   0  0  0  0  0  0  0  0  0  0
    3.5467    0.0467    0.0000 C   0  0  0  0  0  0  0  0  0  0
    4.5733    0.7933    0.0000 C   0  0  0  0  0  0  0  0  0  0
    4.5733    2.1933    0.0000 C   0  0  0  0  0  0  0  0  0  0
    3.3133    2.8933    0.0000 C   0  0  0  0  0  0  0  0  0  0
    1.1667    2.8000    0.0000 C   0  0  0  0  0  0  0  0  0  0
    0.0000    2.1000    0.0000 C   0  0  0  0  0  0  0  0  0  0
    0.0000    0.7000    0.0000 C   0  0  0  0  0  0  0  0  0  0
    1.1667    0.0000    0.0000 C   0  0  0  0  0  0  0  0  0  0
    2.9867    4.1533    0.0000 C   0  0  0  0  0  0  0  0  0  0
    1.5867    4.1533    0.0000 C   0  0  0  0  0  0  0  0  0  0
    3.6867    5.3667    0.0000 C   0  0  0  0  0  0  0  0  0  0
    2.9867    6.5800    0.0000 C   0  0  0  0  0  0  0  0  0  0
    1.5867    6.5800    0.0000 C   0  0  0  0  0  0  0  0  0  0
    0.8867    5.3667    0.0000 C   0  0  0  0  0  0  0  0  0  0
    5.7867    2.8933    0.0000 N   0  3  0  0  0  0  0  0  0  0
    7.0000    2.1933    0.0000 O   0  5  0  0  0  0  0  0  0  0
    5.7867    4.2933    0.0000 O   0  0  0  0  0  0  0  0  0  0
  1  2  4  0  0  0  0
  2  3  4  0  0  0  0
  3  4  4  0  0  0  0
  4  5  4  0  0  0  0
  5  6  4  0  0  0  0
  1  6  4  0  0  0  0
  1  7  4  0  0  0  0
  7  8  4  0  0  0  0
  8  9  4  0  0  0  0
  9 10  4  0  0  0  0
  2 10  4  0  0  0  0
  6 11  1  0  0  0  0
 11 12  4  0  0  0  0
  7 12  1  0  0  0  0
 11 13  4  0  0  0  0
 13 14  4  0  0  0  0
 14 15  4  0  0  0  0
 15 16  4  0  0  0  0
 12 16  4  0  0  0  0
  5 17  1  0  0  0  0
 17 18  1  0  0  0  0
 17 19  2  0  0  0  0
M  END
>  <Compound Name> (4)
1-nitrofluoranthene

>  <Formula> (4)
C16H9NO2

>  <LogP> (4)
4.69

>  <LUMO> (4)
-1.591

>  <MOL_ID> (4)
4

>  <Activity> (4)
2.74

$$$$
2,5-difluoronitrobenzene
csChmFindW1207992328
[comments]
 11 11  0     0  0  0  0  0  0  1 V2000
   -0.0000    2.4267    0.0000 C   0  0  0  0  0  0  0  0  0  0
    0.6533    1.2133    0.0000 C   0  0  0  0  0  0  0  0  0  0
    2.0533    1.2133    0.0000 C   0  0  0  0  0  0  0  0  0  0
    2.7533    2.4267    0.0000 C   0  0  0  0  0  0  0  0  0  0
    2.0533    3.6400    0.0000 C   0  0  0  0  0  0  0  0  0  0
    0.6533    3.6400    0.0000 C   0  0  0  0  0  0  0  0  0  0
    4.1533    2.4267    0.0000 N   0  3  0  0  0  0  0  0  0  0
    4.8533    1.2133    0.0000 O   0  5  0  0  0  0  0  0  0  0
    4.8533    3.6400    0.0000 O   0  0  0  0  0  0  0  0  0  0
    2.7533    4.8533    0.0000 F   0  0  0  0  0  0  0  0  0  0
   -0.0000   -0.0000    0.0000 F   0  0  0  0  0  0  0  0  0  0
  1  2  4  0  0  0  0
  2  3  4  0  0  0  0
  3  4  4  0  0  0  0
  4  5  4  0  0  0  0
  5  6  4  0  0  0  0
  1  6  4  0  0  0  0
  4  7  1  0  0  0  0
  7  8  1  0  0  0  0
  7  9  2  0  0  0  0
  5 10  1  0  0  0  0
  2 11  1  0  0  0  0
M  END
>  <Compound Name> (5)
2,5-difluoronitrobenzene

>  <Formula> (5)
C6H3F2NO2

>  <LogP> (5)
1.89

>  <LUMO> (5)
-1.59

>  <MOL_ID> (5)
5

>  <Activity> (5)
-0.79

$$$$
1,3,6,8-tetranitropyrene
csChmFindW1207992328
[comments]
 28 31  0     0  0  0  0  0  0  1 V2000
    2.3787    4.1977    0.0000 C   0  0  0  0  0  0  0  0  0  0
    2.3787    2.7985    0.0000 C   0  0  0  0  0  0  0  0  0  0
    3.5914    2.0989    0.0000 C   0  0  0  0  0  0  0  0  0  0
    4.8040    2.7985    0.0000 C   0  0  0  0  0  0  0  0  0  0
    4.8040    4.1977    0.0000 C   0  0  0  0  0  0  0  0  0  0
    3.5914    4.8973    0.0000 C   0  0  0  0  0  0  0  0  0  0
    6.0167    2.0989    0.0000 C   0  0  0  0  0  0  0  0  0  0
    7.2294    2.7985    0.0000 C   0  0  0  0  0  0  0  0  0  0
    7.2294    4.1977    0.0000 C   0  0  0  0  0  0  0  0  0  0
    6.0167    4.8973    0.0000 C   0  0  0  0  0  0  0  0  0  0
    6.0167    6.2965    0.0000 C   0  0  0  0  0  0  0  0  0  0
    4.8040    6.9962    0.0000 C   0  0  0  0  0  0  0  0  0  0
    3.5914    6.2965    0.0000 C   0  0  0  0  0  0  0  0  0  0
    8.4420    4.8973    0.0000 C   0  0  0  0  0  0  0  0  0  0
    8.4420    6.2965    0.0000 C   0  0  0  0  0  0  0  0  0  0
    7.2294    6.9962    0.0000 C   0  0  0  0  0  0  0  0  0  0
    7.2294    8.3954    0.0000 N   0  3  0  0  0  0  0  0  0  0
    8.4420    9.0484    0.0000 O   0  5  0  0  0  0  0  0  0  0
    6.0167    9.0484    0.0000 O   0  0  0  0  0  0  0  0  0  0
    9.6547    4.1977    0.0000 N   0  3  0  0  0  0  0  0  0  0
    9.6547    2.7985    0.0000 O   0  5  0  0  0  0  0  0  0  0
   10.8674    4.8973    0.0000 O   0  0  0  0  0  0  0  0  0  0
    1.1660    4.8973    0.0000 N   0  3  0  0  0  0  0  0  0  0
    1.1660    6.2965    0.0000 O   0  5  0  0  0  0  0  0  0  0
    0.0000    4.1977    0.0000 O   0  0  0  0  0  0  0  0  0  0
    3.5914    0.6996    0.0000 N   0  3  0  0  0  0  0  0  0  0
    2.3787   -0.0000    0.0000 O   0  5  0  0  0  0  0  0  0  0
    4.8040   -0.0000    0.0000 O   0  0  0  0  0  0  0  0  0  0
  1  2  4  0  0  0  0
  2  3  4  0  0  0  0
  3  4  4  0  0  0  0
  4  5  4  0  0  0  0
  5  6  4  0  0  0  0
  1  6  4  0  0  0  0
  4  7  4  0  0  0  0
  7  8  4  0  0  0  0
  8  9  4  0  0  0  0
  9 10  4  0  0  0  0
  5 10  4  0  0  0  0
 10 11  4  0  0  0  0
 11 12  4  0  0  0  0
 12 13  4  0  0  0  0
  6 13  4  0  0  0  0
  9 14  4  0  0  0  0
 14 15  4  0  0  0  0
 15 16  4  0  0  0  0
 11 16  4  0  0  0  0
 16 17  1  0  0  0  0
 17 18  1  0  0  0  0
 17 19  2  0  0  0  0
 14 20  1  0  0  0  0
 20 21  1  0  0  0  0
 20 22  2  0  0  0  0
  1 23  1  0  0  0  0
 23 24  1  0  0  0  0
 23 25  2  0  0  0  0
  3 26  1  0  0  0  0
 26 27  1  0  0  0  0
 26 28  2  0  0  0  0
M  END
>  <Compound Name> (6)
1,3,6,8-tetranitropyrene

>  <Formula> (6)
C16H6N4O8

>  <LogP> (6)
3.92

>  <LUMO> (6)
-3.406

>  <MOL_ID> (6)
6

>  <Activity> (6)
4.99

$$$$
3-methyl-4-nitrobiphenyl
csChmFindW1207992328
[comments]
 16 17  0     0  0  0  0  0  0  1 V2000
   -0.0000    1.2133    0.0000 C   0  0  0  0  0  0  0  0  0  0
    0.6533   -0.0000    0.0000 C   0  0  0  0  0  0  0  0  0  0
    2.0533   -0.0000    0.0000 C   0  0  0  0  0  0  0  0  0  0
    2.7533    1.2133    0.0000 C   0  0  0  0  0  0  0  0  0  0
    2.0533    2.4267    0.0000 C   0  0  0  0  0  0  0  0  0  0
    0.6533    2.4267    0.0000 C   0  0  0  0  0  0  0  0  0  0
    4.1533    1.2133    0.0000 C   0  0  0  0  0  0  0  0  0  0
    4.8533   -0.0000    0.0000 C   0  0  0  0  0  0  0  0  0  0
    6.2533   -0.0000    0.0000 C   0  0  0  0  0  0  0  0  0  0
    6.9533    1.2133    0.0000 C   0  0  0  0  0  0  0  0  0  0
    6.2533    2.4267    0.0000 C   0  0  0  0  0  0  0  0  0  0
    4.8533    2.4267    0.0000 C   0  0  0  0  0  0  0  0  0  0
    6.9533    3.5933    0.0000 C   0  0  0  0  0  0  0  0  0  0
    8.3533    1.2133    0.0000 N   0  3  0  0  0  0  0  0  0  0
    9.0533   -0.0000    0.0000 O   0  5  0  0  0  0  0  0  0  0
    9.0533    2.4267    0.0000 O   0  0  0  0  0  0  0  0  0  0
  1  2  4  0  0  0  0
  2  3  4  0  0  0  0
  3  4  4  0  0  0  0
  4  5  4  0  0  0  0
  5  6  4  0  0  0  0
  1  6  4  0  0  0  0
  4  7  1  0  0  0  0
  7  8  4  0  0  0  0
  8  9  4  0  0  0  0
  9 10  4  0  0  0  0
 10 11  4  0  0  0  0
 11 12  4  0  0  0  0
  7 12  4  0  0  0  0
 11 13  1  0  0  0  0
 10 14  1  0  0  0  0
 14 15  1  0  0  0  0
 14 16  2  0  0  0  0
M  END
>  <Compound Name> (7)
3-methyl-4-nitrobiphenyl

>  <Formula> (7)
C13H11NO2

>  <LogP> (7)
3.99

>  <LUMO> (7)
-1.144

>  <MOL_ID> (7)
7

>  <Activity> (7)
-0.1

$$$$
2-acetoxy-7-nitrofluorene
csChmFindW1207992328
[comments]
 20 22  0     0  0  0  0  0  0  1 V2000
    3.5913    3.4981    0.0000 C   0  0  0  0  0  0  0  0  0  0
    3.5913    2.0988    0.0000 C   0  0  0  0  0  0  0  0  0  0
    4.8040    1.3992    0.0000 C   0  0  0  0  0  0  0  0  0  0
    6.0167    2.0988    0.0000 C   0  0  0  0  0  0  0  0  0  0
    6.0167    3.4981    0.0000 C   0  0  0  0  0  0  0  0  0  0
    4.8040    4.1510    0.0000 C   0  0  0  0  0  0  0  0  0  0
    7.2293    1.3992    0.0000 C   0  0  0  0  0  0  0  0  0  0
    8.4420    2.0988    0.0000 C   0  0  0  0  0  0  0  0  0  0
    8.4420    3.4981    0.0000 C   0  0  0  0  0  0  0  0  0  0
    9.6546    1.3992    0.0000 C   0  0  0  0  0  0  0  0  0  0
   10.8673    2.0988    0.0000 C   0  0  0  0  0  0  0  0  0  0
   10.8673    3.4981    0.0000 C   0  0  0  0  0  0  0  0  0  0
    9.6546    4.1510    0.0000 C   0  0  0  0  0  0  0  0  0  0
   12.0800    1.3992    0.0000 N   0  3  0  0  0  0  0  0  0  0
   12.0800    0.0000    0.0000 O   0  5  0  0  0  0  0  0  0  0
   13.2926    2.0988    0.0000 O   0  0  0  0  0  0  0  0  0  0
    2.3787    1.3992    0.0000 O   0  0  0  0  0  0  0  0  0  0
    1.1660    2.0988    0.0000 C   0  0  0  0  0  0  0  0  0  0
    1.1660    3.4981    0.0000 O   0  0  0  0  0  0  0  0  0  0
    0.0000    1.3992    0.0000 C   0  0  0  0  0  0  0  0  0  0
  1  2  4  0  0  0  0
  2  3  4  0  0  0  0
  3  4  4  0  0  0  0
  4  5  4  0  0  0  0
  5  6  4  0  0  0  0
  1  6  4  0  0  0  0
  4  7  1  0  0  0  0
  7  8  1  0  0  0  0
  8  9  4  0  0  0  0
  5  9  1  0  0  0  0
  8 10  4  0  0  0  0
 10 11  4  0  0  0  0
 11 12  4  0  0  0  0
 12 13  4  0  0  0  0
  9 13  4  0  0  0  0
 11 14  1  0  0  0  0
 14 15  1  0  0  0  0
 14 16  2  0  0  0  0
  2 17  1  0  0  0  0
 17 18  1  0  0  0  0
 18 19  2  0  0  0  0
 18 20  1  0  0  0  0
M  END
>  <Compound Name> (8)
2-acetoxy-7-nitrofluorene

>  <Formula> (8)
C15H11NO4

>  <LogP> (8)
3.46

>  <LUMO> (8)
-1.437

>  <MOL_ID> (8)
8

>  <Activity> (8)
1.86

$$$$
5-nitrobenzimidazole
csChmFindW1207992328
[comments]
 12 13  0     0  0  0  0  0  0  1 V2000
    2.3787    2.0988    0.0000 C   0  0  0  0  0  0  0  0  0  0
    2.3787    0.6996    0.0000 C   0  0  0  0  0  0  0  0  0  0
    3.5914   -0.0000    0.0000 C   0  0  0  0  0  0  0  0  0  0
    4.8040    0.6996    0.0000 C   0  0  0  0  0  0  0  0  0  0
    4.8040    2.0988    0.0000 C   0  0  0  0  0  0  0  0  0  0
    3.5914    2.7985    0.0000 C   0  0  0  0  0  0  0  0  0  0
    6.1566    0.2798    0.0000 N   0  0  0  0  0  0  0  0  0  0
    6.9495    1.3992    0.0000 C   0  0  0  0  0  0  0  0  0  0
    6.1566    2.5186    0.0000 N   0  0  0  1  0  0  0  0  0  0
    1.1660    2.7985    0.0000 N   0  3  0  0  0  0  0  0  0  0
    1.1660    4.1510    0.0000 O   0  5  0  0  0  0  0  0  0  0
    0.0000    2.0988    0.0000 O   0  0  0  0  0  0  0  0  0  0
  1  2  4  0  0  0  0
  2  3  4  0  0  0  0
  3  4  4  0  0  0  0
  4  5  4  0  0  0  0
  5  6  4  0  0  0  0
  1  6  4  0  0  0  0
  4  7  4  0  0  0  0
  7  8  4  0  0  0  0
  8  9  4  0  0  0  0
  5  9  4  0  0  0  0
  1 10  1  0  0  0  0
 10 11  1  0  0  0  0
 10 12  2  0  0  0  0
M  END
>  <Compound Name> (9)
5-nitrobenzimidazole

>  <Formula> (9)
C7H4N3O2

>  <LogP> (9)
1.64

>  <LUMO> (9)
-0.982

>  <MOL_ID> (9)
9

>  <Activity> (9)
-1.83

$$$$
2-methyl-7-nitrofluorene
csChmFindW1207992328
[comments]
 17 19  0     0  0  0  0  0  0  1 V2000
    2.3800    3.5000    0.0000 C   0  0  0  0  0  0  0  0  0  0
    2.3800    2.1000    0.0000 C   0  0  0  0  0  0  0  0  0  0
    3.5933    1.4000    0.0000 C   0  0  0  0  0  0  0  0  0  0
    4.8067    2.1000    0.0000 C   0  0  0  0  0  0  0  0  0  0
    4.8067    3.5000    0.0000 C   0  0  0  0  0  0  0  0  0  0
    3.5933    4.1533    0.0000 C   0  0  0  0  0  0  0  0  0  0
    6.0200    1.4000    0.0000 C   0  0  0  0  0  0  0  0  0  0
    7.2333    2.1000    0.0000 C   0  0  0  0  0  0  0  0  0  0
    7.2333    3.5000    0.0000 C   0  0  0  0  0  0  0  0  0  0
    8.4467    1.4000    0.0000 C   0  0  0  0  0  0  0  0  0  0
    9.6600    2.1000    0.0000 C   0  0  0  0  0  0  0  0  0  0
    9.6600    3.5000    0.0000 C   0  0  0  0  0  0  0  0  0  0
    8.4467    4.1533    0.0000 C   0  0  0  0  0  0  0  0  0  0
   10.8733    1.4000    0.0000 C   0  0  0  0  0  0  0  0  0  0
    1.1667    1.4000    0.0000 N   0  3  0  0  0  0  0  0  0  0
   -0.0000    2.1000    0.0000 O   0  5  0  0  0  0  0  0  0  0
    1.1667    0.0000    0.0000 O   0  0  0  0  0  0  0  0  0  0
  1  2  4  0  0  0  0
  2  3  4  0  0  0  0
  3  4  4  0  0  0  0
  4  5  4  0  0  0  0
  5  6  4  0  0  0  0
  1  6  4  0  0  0  0
  4  7  1  0  0  0  0
  7  8  1  0  0  0  0
  8  9  4  0  0  0  0
  5  9  1  0  0  0  0
  8 10  4  0  0  0  0
 10 11  4  0  0  0  0
 11 12  4  0  0  0  0
 12 13  4  0  0  0  0
  9 13  4  0  0  0  0
 11 14  1  0  0  0  0
  2 15  1  0  0  0  0
 15 16  1  0  0  0  0
 15 17  2  0  0  0  0
M  END
>  <Compound Name> (10)
2-methyl-7-nitrofluorene

>  <Formula> (10)
C14H11NO2

>  <LogP> (10)
4.62

>  <LUMO> (10)
-1.387

>  <MOL_ID> (10)
10

>  <Activity> (10)
2.36

$$$$
9-nitrophenanthrene
csChmFindW1207992328
[comments]
 17 19  0     0  0  0  0  0  0  1 V2000
    0.6533    2.4267    0.0000 C   0  0  0  0  0  0  0  0  0  0
    0.0000    1.2133    0.0000 C   0  0  0  0  0  0  0  0  0  0
    0.6533   -0.0000    0.0000 C   0  0  0  0  0  0  0  0  0  0
    2.0533   -0.0000    0.0000 C   0  0  0  0  0  0  0  0  0  0
    2.7533    1.2133    0.0000 C   0  0  0  0  0  0  0  0  0  0
    2.0533    2.4267    0.0000 C   0  0  0  0  0  0  0  0  0  0
    4.1533    1.2133    0.0000 C   0  0  0  0  0  0  0  0  0  0
    4.8533    2.4267    0.0000 C   0  0  0  0  0  0  0  0  0  0
    4.1533    3.6400    0.0000 C   0  0  0  0  0  0  0  0  0  0
    2.7533    3.6400    0.0000 C   0  0  0  0  0  0  0  0  0  0
    4.8533   -0.0000    0.0000 C   0  0  0  0  0  0  0  0  0  0
    6.2533   -0.0000    0.0000 C   0  0  0  0  0  0  0  0  0  0
    7.0000    1.2133    0.0000 C   0  0  0  0  0  0  0  0  0  0
    6.2533    2.4267    0.0000 C   0  0  0  0  0  0  0  0  0  0
    2.0533    4.8533    0.0000 N   0  3  0  0  0  0  0  0  0  0
    2.7533    6.0200    0.0000 O   0  5  0  0  0  0  0  0  0  0
    0.6533    4.8533    0.0000 O   0  0  0  0  0  0  0  0  0  0
  1  2  4  0  0  0  0
  2  3  4  0  0  0  0
  3  4  4  0  0  0  0
  4  5  4  0  0  0  0
  5  6  4  0  0  0  0
  1  6  4  0  0  0  0
  5  7  4  0  0  0  0
  7  8  4  0  0  0  0
  8  9  4  0  0  0  0
  9 10  4  0  0  0  0
  6 10  4  0  0  0  0
  7 11  4  0  0  0  0
 11 12  4  0  0  0  0
 12 13  4  0  0  0  0
 13 14  4  0  0  0  0
  8 14  4  0  0  0  0
 10 15  1  0  0  0  0
 15 16  1  0  0  0  0
 15 17  2  0  0  0  0
M  END
>  <Compound Name> (11)
9-nitrophenanthrene

>  <Formula> (11)
C14H9NO2

>  <LogP> (11)
4.23

>  <LUMO> (11)
-1.254

>  <MOL_ID> (11)
11

>  <Activity> (11)
2.25

$$$$
1-amino-8-nitropyrene
csChmFindW1207992328
[comments]
 20 23  0     0  0  0  0  0  0  1 V2000
    2.3321    2.0988    0.0000 C   0  0  0  0  0  0  0  0  0  0
    2.3321    0.6996    0.0000 C   0  0  0  0  0  0  0  0  0  0
    3.5447    0.0000    0.0000 C   0  0  0  0  0  0  0  0  0  0
    4.7574    0.6996    0.0000 C   0  0  0  0  0  0  0  0  0  0
    4.7574    2.0988    0.0000 C   0  0  0  0  0  0  0  0  0  0
    3.5447    2.7985    0.0000 C   0  0  0  0  0  0  0  0  0  0
    5.9700    2.7985    0.0000 C   0  0  0  0  0  0  0  0  0  0
    5.9700    4.1977    0.0000 C   0  0  0  0  0  0  0  0  0  0
    4.7574    4.8973    0.0000 C   0  0  0  0  0  0  0  0  0  0
    3.5447    4.1977    0.0000 C   0  0  0  0  0  0  0  0  0  0
    7.1827    2.0988    0.0000 C   0  0  0  0  0  0  0  0  0  0
    8.3954    2.7985    0.0000 C   0  0  0  0  0  0  0  0  0  0
    8.3954    4.1977    0.0000 C   0  0  0  0  0  0  0  0  0  0
    7.1827    4.8973    0.0000 C   0  0  0  0  0  0  0  0  0  0
    5.9700    0.0000    0.0000 C   0  0  0  0  0  0  0  0  0  0
    7.1827    0.6996    0.0000 C   0  0  0  0  0  0  0  0  0  0
    1.1194    2.7985    0.0000 N   0  3  0  0  0  0  0  0  0  0
    1.1194    4.1977    0.0000 O   0  5  0  0  0  0  0  0  0  0
   -0.0000    2.0988    0.0000 O   0  0  0  0  0  0  0  0  0  0
    7.1827    6.2033    0.0000 N   0  0  0  0  0  3  0  0  0  0
  1  2  4  0  0  0  0
  2  3  4  0  0  0  0
  3  4  4  0  0  0  0
  4  5  4  0  0  0  0
  5  6  4  0  0  0  0
  1  6  4  0  0  0  0
  5  7  4  0  0  0  0
  7  8  4  0  0  0  0
  8  9  4  0  0  0  0
  9 10  4  0  0  0  0
  6 10  4  0  0  0  0
  7 11  4  0  0  0  0
 11 12  4  0  0  0  0
 12 13  4  0  0  0  0
 13 14  4  0  0  0  0
  8 14  4  0  0  0  0
  4 15  4  0  0  0  0
 15 16  4  0  0  0  0
 11 16  4  0  0  0  0
  1 17  1  0  0  0  0
 17 18  1  0  0  0  0
 17 19  2  0  0  0  0
 14 20  1  0  0  0  0
M  END
>  <Compound Name> (12)
1-amino-8-nitropyrene

>  <Formula> (12)
C16H10N2O2

>  <LogP> (12)
3.63

>  <LUMO> (12)
-1.627

>  <MOL_ID> (12)
12

>  <Activity> (12)
2.43

$$$$
2,4-dinitrofluoranthene
csChmFindW1207992328
[comments]
 22 25  0     0  0  0  0  0  0  1 V2000
    2.9867    8.7267    0.0000 C   0  0  0  0  0  0  0  0  0  0
    1.5867    8.7267    0.0000 C   0  0  0  0  0  0  0  0  0  0
    0.8867    7.5134    0.0000 C   0  0  0  0  0  0  0  0  0  0
    1.5867    6.2534    0.0000 C   0  0  0  0  0  0  0  0  0  0
    2.9867    6.2534    0.0000 C   0  0  0  0  0  0  0  0  0  0
    3.6867    7.5134    0.0000 C   0  0  0  0  0  0  0  0  0  0
    1.1667    4.9000    0.0000 C   0  0  0  0  0  0  0  0  0  0
    2.2867    4.0600    0.0000 C   0  0  0  0  0  0  0  0  0  0
    3.4067    4.8534    0.0000 C   0  0  0  0  0  0  0  0  0  0
    2.2867    2.8000    0.0000 C   0  0  0  0  0  0  0  0  0  0
    1.1667    2.1000    0.0000 C   0  0  0  0  0  0  0  0  0  0
   -0.0000    4.2000    0.0000 C   0  0  0  0  0  0  0  0  0  0
   -0.0000    2.8000    0.0000 C   0  0  0  0  0  0  0  0  0  0
    3.4067    2.1934    0.0000 C   0  0  0  0  0  0  0  0  0  0
    4.5267    2.8000    0.0000 C   0  0  0  0  0  0  0  0  0  0
    4.5267    4.0600    0.0000 C   0  0  0  0  0  0  0  0  0  0
    5.7867    2.1000    0.0000 N   0  3  0  0  0  0  0  0  0  0
    5.7867    0.7000    0.0000 O   0  5  0  0  0  0  0  0  0  0
    6.9067    2.8000    0.0000 O   0  0  0  0  0  0  0  0  0  0
    1.1667    0.7000    0.0000 N   0  3  0  0  0  0  0  0  0  0
   -0.0000    0.0000    0.0000 O   0  5  0  0  0  0  0  0  0  0
    2.4267    0.0000    0.0000 O   0  0  0  0  0  0  0  0  0  0
  1  2  4  0  0  0  0
  2  3  4  0  0  0  0
  3  4  4  0  0  0  0
  4  5  4  0  0  0  0
  5  6  4  0  0  0  0
  1  6  4  0  0  0  0
  4  7  1  0  0  0  0
  7  8  4  0  0  0  0
  8  9  4  0  0  0  0
  5  9  1  0  0  0  0
 10 11  4  0  0  0  0
  8 10  4  0  0  0  0
  7 12  4  0  0  0  0
 12 13  4  0  0  0  0
 11 13  4  0  0  0  0
 10 14  4  0  0  0  0
 14 15  4  0  0  0  0
 15 16  4  0  0  0  0
  9 16  4  0  0  0  0
 15 17  1  0  0  0  0
 17 18  1  0  0  0  0
 17 19  2  0  0  0  0
 11 20  1  0  0  0  0
 20 21  1  0  0  0  0
 20 22  2  0  0  0  0
M  END
>  <Compound Name> (13)
2,4-dinitrofluoranthene

>  <Formula> (13)
C16H8N2O4

>  <LogP> (13)
4.44

>  <LUMO> (13)
-2.292

>  <MOL_ID> (13)
13

>  <Activity> (13)
3.78

$$$$
1-methyl-6-nitroindazole
csChmFindW1207992328
[comments]
 13 14  0     0  0  0  0  0  0  1 V2000
    2.3787    3.5447    0.0000 C   0  0  0  0  0  0  0  0  0  0
    2.3787    2.0988    0.0000 C   0  0  0  0  0  0  0  0  0  0
    3.5913    1.3992    0.0000 C   0  0  0  0  0  0  0  0  0  0
    4.7574    2.0988    0.0000 C   0  0  0  0  0  0  0  0  0  0
    4.7574    3.5447    0.0000 C   0  0  0  0  0  0  0  0  0  0
    3.5913    4.1510    0.0000 C   0  0  0  0  0  0  0  0  0  0
    6.1566    1.7257    0.0000 N   0  0  0  0  0  0  0  0  0  0
    6.9028    2.7984    0.0000 N   0  0  0  0  0  0  0  0  0  0
    6.1566    3.9645    0.0000 C   0  0  0  0  0  0  0  0  0  0
    1.1660    1.3992    0.0000 N   0  3  0  0  0  0  0  0  0  0
   -0.0000    2.0988    0.0000 O   0  5  0  0  0  0  0  0  0  0
    1.1660    0.0000    0.0000 O   0  0  0  0  0  0  0  0  0  0
    6.5297    0.3731    0.0000 C   0  0  0  0  0  0  0  0  0  0
  1  2  4  0  0  0  0
  2  3  4  0  0  0  0
  3  4  4  0  0  0  0
  4  5  4  0  0  0  0
  5  6  4  0  0  0  0
  1  6  4  0  0  0  0
  4  7  4  0  0  0  0
  7  8  4  0  0  0  0
  8  9  4  0  0  0  0
  5  9  4  0  0  0  0
  2 10  1  0  0  0  0
 10 11  1  0  0  0  0
 10 12  2  0  0  0  0
  7 13  1  0  0  0  0
M  END
>  <Compound Name> (14)
1-methyl-6-nitroindazole

>  <Formula> (14)
C8H8N3O2

>  <LogP> (14)
1.77

>  <LUMO> (14)
-1.289

>  <MOL_ID> (14)
14

>  <Activity> (14)
-1.1

$$$$
1-nitropyrene
csChmFindW1207992328
[comments]
 19 22  0     0  0  0  0  0  0  1 V2000
    0.0000    2.0989    0.0000 C   0  0  0  0  0  0  0  0  0  0
    0.0000    0.6996    0.0000 C   0  0  0  0  0  0  0  0  0  0
    1.1660    0.0000    0.0000 C   0  0  0  0  0  0  0  0  0  0
    2.3787    0.6996    0.0000 C   0  0  0  0  0  0  0  0  0  0
    2.3787    2.0989    0.0000 C   0  0  0  0  0  0  0  0  0  0
    1.1660    2.7985    0.0000 C   0  0  0  0  0  0  0  0  0  0
    3.5914    2.7985    0.0000 C   0  0  0  0  0  0  0  0  0  0
    3.5914    4.1977    0.0000 C   0  0  0  0  0  0  0  0  0  0
    2.3787    4.8973    0.0000 C   0  0  0  0  0  0  0  0  0  0
    1.1660    4.1977    0.0000 C   0  0  0  0  0  0  0  0  0  0
    4.8040    2.0989    0.0000 C   0  0  0  0  0  0  0  0  0  0
    6.0167    2.7985    0.0000 C   0  0  0  0  0  0  0  0  0  0
    6.0167    4.1977    0.0000 C   0  0  0  0  0  0  0  0  0  0
    4.8040    4.8973    0.0000 C   0  0  0  0  0  0  0  0  0  0
    3.5914    0.0000    0.0000 C   0  0  0  0  0  0  0  0  0  0
    4.8040    0.6996    0.0000 C   0  0  0  0  0  0  0  0  0  0
    4.8040    6.2965    0.0000 N   0  3  0  0  0  0  0  0  0  0
    6.0167    6.9962    0.0000 O   0  5  0  0  0  0  0  0  0  0
    3.5914    6.9962    0.0000 O   0  0  0  0  0  0  0  0  0  0
  1  2  4  0  0  0  0
  2  3  4  0  0  0  0
  3  4  4  0  0  0  0
  4  5  4  0  0  0  0
  5  6  4  0  0  0  0
  1  6  4  0  0  0  0
  5  7  4  0  0  0  0
  7  8  4  0  0  0  0
  8  9  4  0  0  0  0
  9 10  4  0  0  0  0
  6 10  4  0  0  0  0
  7 11  4  0  0  0  0
 11 12  4  0  0  0  0
 12 13  4  0  0  0  0
 13 14  4  0  0  0  0
  8 14  4  0  0  0  0
  4 15  4  0  0  0  0
 15 16  4  0  0  0  0
 11 16  4  0  0  0  0
 14 17  1  0  0  0  0
 17 18  1  0  0  0  0
 17 19  2  0  0  0  0
M  END
>  <Compound Name> (15)
1-nitropyrene

>  <Formula> (15)
C16H9NO2

>  <LogP> (15)
4.69

>  <LUMO> (15)
-1.698

>  <MOL_ID> (15)
15

>  <Activity> (15)
2.78

$$$$
3,4-dinitrofluoranthene
csChmFindW1207992328
[comments]
 22 25  0     0  0  0  0  0  0  1 V2000
    3.0465    8.8063    0.0000 C   0  0  0  0  0  0  0  0  0  0
    1.6185    8.8063    0.0000 C   0  0  0  0  0  0  0  0  0  0
    0.9044    7.5210    0.0000 C   0  0  0  0  0  0  0  0  0  0
    1.6185    6.2834    0.0000 C   0  0  0  0  0  0  0  0  0  0
    3.0465    6.2834    0.0000 C   0  0  0  0  0  0  0  0  0  0
    3.7605    7.5210    0.0000 C   0  0  0  0  0  0  0  0  0  0
    1.1900    4.9506    0.0000 C   0  0  0  0  0  0  0  0  0  0
    2.3325    4.0461    0.0000 C   0  0  0  0  0  0  0  0  0  0
    3.4749    4.8554    0.0000 C   0  0  0  0  0  0  0  0  0  0
    2.3325    2.7609    0.0000 C   0  0  0  0  0  0  0  0  0  0
    1.1900    2.0469    0.0000 C   0  0  0  0  0  0  0  0  0  0
    0.0000    4.1889    0.0000 C   0  0  0  0  0  0  0  0  0  0
    0.0000    2.7609    0.0000 C   0  0  0  0  0  0  0  0  0  0
    3.4749    2.0945    0.0000 C   0  0  0  0  0  0  0  0  0  0
    4.6173    2.7609    0.0000 C   0  0  0  0  0  0  0  0  0  0
    4.6173    4.0461    0.0000 C   0  0  0  0  0  0  0  0  0  0
    1.1900    0.6188    0.0000 N   0  3  0  0  0  0  0  0  0  0
    0.3332    0.0476    0.0000 O   0  5  0  0  0  0  0  0  0  0
    1.9041    0.1428    0.0000 O   0  0  0  0  0  0  0  0  0  0
    3.5701    0.8568    0.0000 N   0  3  0  0  0  0  0  0  0  0
    2.7609   -0.0000    0.0000 O   0  5  0  0  0  0  0  0  0  0
    4.2365    0.1904    0.0000 O   0  0  0  0  0  0  0  0  0  0
  1  2  4  0  0  0  0
  2  3  4  0  0  0  0
  3  4  4  0  0  0  0
  4  5  4  0  0  0  0
  5  6  4  0  0  0  0
  1  6  4  0  0  0  0
  4  7  1  0  0  0  0
  7  8  4  0  0  0  0
  8  9  4  0  0  0  0
  5  9  1  0  0  0  0
 10 11  4  0  0  0  0
  8 10  4  0  0  0  0
  7 12  4  0  0  0  0
 12 13  4  0  0  0  0
 11 13  4  0  0  0  0
 10 14  4  0  0  0  0
 14 15  4  0  0  0  0
 15 16  4  0  0  0  0
  9 16  4  0  0  0  0
 11 17  1  0  0  0  0
 17 18  1  0  0  0  0
 17 19  2  0  0  0  0
 14 20  1  0  0  0  0
 20 21  1  0  0  0  0
 20 22  2  0  0  0  0
M  END
>  <Compound Name> (16)
3,4-dinitrofluoranthene

>  <Formula> (16)
C16H8N2O4

>  <LogP> (16)
4.44

>  <LUMO> (16)
-2.172

>  <MOL_ID> (16)
16

>  <Activity> (16)
3.62

$$$$
2-nitro-m-phenylenediamine
csChmFindW1207992328
[comments]
 11 11  0     0  0  0  0  0  0  1 V2000
    0.6533    2.4267    0.0000 C   0  0  0  0  0  0  0  0  0  0
    2.0533    2.4267    0.0000 C   0  0  0  0  0  0  0  0  0  0
    2.7533    3.6400    0.0000 C   0  0  0  0  0  0  0  0  0  0
    2.0533    4.8533    0.0000 C   0  0  0  0  0  0  0  0  0  0
    0.6533    4.8533    0.0000 C   0  0  0  0  0  0  0  0  0  0
    0.0000    3.6400    0.0000 C   0  0  0  0  0  0  0  0  0  0
    4.1533    3.6400    0.0000 N   0  0  0  2  0  0  0  0  0  0
    0.0000    1.2133    0.0000 N   0  0  0  2  0  0  0  0  0  0
    2.7533    1.2133    0.0000 N   0  3  0  0  0  0  0  0  0  0
    2.0533   -0.0000    0.0000 O   0  5  0  0  0  0  0  0  0  0
    4.1533    1.2133    0.0000 O   0  0  0  0  0  0  0  0  0  0
  1  2  4  0  0  0  0
  2  3  4  0  0  0  0
  3  4  4  0  0  0  0
  4  5  4  0  0  0  0
  5  6  4  0  0  0  0
  1  6  4  0  0  0  0
  3  7  1  0  0  0  0
  1  8  1  0  0  0  0
  2  9  1  0  0  0  0
  9 10  1  0  0  0  0
  9 11  2  0  0  0  0
M  END
>  <Compound Name> (17)
2-nitro-m-phenylenediamine

>  <Formula> (17)
C6H7N3O2

>  <LogP> (17)
0.87

>  <LUMO> (17)
-0.529

>  <MOL_ID> (17)
17

>  <Activity> (17)
-3

$$$$
3-nitro-9-fluorenone
csChmFindW1207992328
[comments]
 17 19  0     0  0  0  0  0  0  1 V2000
    0.0000    3.5000    0.0000 C   0  0  0  0  0  0  0  0  0  0
    0.0000    2.1000    0.0000 C   0  0  0  0  0  0  0  0  0  0
    1.1667    1.4000    0.0000 C   0  0  0  0  0  0  0  0  0  0
    2.4267    2.1000    0.0000 C   0  0  0  0  0  0  0  0  0  0
    2.4267    3.5000    0.0000 C   0  0  0  0  0  0  0  0  0  0
    1.1667    4.1533    0.0000 C   0  0  0  0  0  0  0  0  0  0
    3.6400    1.4000    0.0000 C   0  0  0  0  0  0  0  0  0  0
    4.8067    2.1000    0.0000 C   0  0  0  0  0  0  0  0  0  0
    4.8067    3.5000    0.0000 C   0  0  0  0  0  0  0  0  0  0
    6.0667    1.4000    0.0000 C   0  0  0  0  0  0  0  0  0  0
    7.2800    2.1000    0.0000 C   0  0  0  0  0  0  0  0  0  0
    7.2800    3.5000    0.0000 C   0  0  0  0  0  0  0  0  0  0
    6.0667    4.1533    0.0000 C   0  0  0  0  0  0  0  0  0  0
    3.6400    0.0000    0.0000 O   0  0  0  0  0  0  0  0  0  0
    8.4467    4.2000    0.0000 N   0  3  0  0  0  0  0  0  0  0
    9.6600    3.5000    0.0000 O   0  5  0  0  0  0  0  0  0  0
    8.4467    5.6000    0.0000 O   0  0  0  0  0  0  0  0  0  0
  1  2  4  0  0  0  0
  2  3  4  0  0  0  0
  3  4  4  0  0  0  0
  4  5  4  0  0  0  0
  5  6  4  0  0  0  0
  1  6  4  0  0  0  0
  4  7  1  0  0  0  0
  7  8  1  0  0  0  0
  8  9  4  0  0  0  0
  5  9  1  0  0  0  0
  8 10  4  0  0  0  0
 10 11  4  0  0  0  0
 11 12  4  0  0  0  0
 12 13  4  0  0  0  0
  9 13  4  0  0  0  0
  7 14  2  0  0  0  0
 12 15  1  0  0  0  0
 15 16  1  0  0  0  0
 15 17  2  0  0  0  0
M  END
>  <Compound Name> (18)
3-nitro-9-fluorenone

>  <Formula> (18)
C13H7NO3

>  <LogP> (18)
3.06

>  <LUMO> (18)
-1.861

>  <MOL_ID> (18)
18

>  <Activity> (18)
2.13

$$$$
6-nitroquinoline
csChmFindW1207992328
[comments]
 13 14  0     0  0  0  0  0  0  1 V2000
    2.3787    0.6996    0.0000 C   0  0  0  0  0  0  0  0  0  0
    3.5913    0.0000    0.0000 C   0  0  0  0  0  0  0  0  0  0
    4.8040    0.6996    0.0000 C   0  0  0  0  0  0  0  0  0  0
    4.8040    2.0988    0.0000 C   0  0  0  0  0  0  0  0  0  0
    3.5913    2.7984    0.0000 C   0  0  0  0  0  0  0  0  0  0
    2.3787    2.0988    0.0000 C   0  0  0  0  0  0  0  0  0  0
    6.0167    0.0000    0.0000 N   0  0  0  0  0  0  0  0  0  0
    7.2293    0.6996    0.0000 C   0  0  0  0  0  0  0  0  0  0
    7.2293    2.0988    0.0000 C   0  0  0  0  0  0  0  0  0  0
    6.0167    2.7984    0.0000 C   0  0  0  0  0  0  0  0  0  0
    1.1660    2.7984    0.0000 N   0  3  0  0  0  0  0  0  0  0
    1.1660    4.1510    0.0000 O   0  5  0  0  0  0  0  0  0  0
    0.0000    2.0988    0.0000 O   0  0  0  0  0  0  0  0  0  0
  1  2  4  0  0  0  0
  2  3  4  0  0  0  0
  3  4  4  0  0  0  0
  4  5  4  0  0  0  0
  5  6  4  0  0  0  0
  1  6  4  0  0  0  0
  3  7  4  0  0  0  0
  7  8  4  0  0  0  0
  8  9  4  0  0  0  0
  9 10  4  0  0  0  0
  4 10  4  0  0  0  0
  6 11  1  0  0  0  0
 11 12  1  0  0  0  0
 11 13  2  0  0  0  0
M  END
>  <Compound Name> (19)
6-nitroquinoline

>  <Formula> (19)
C9H6N2O2

>  <LogP> (19)
1.84

>  <LUMO> (19)
-1.478

>  <MOL_ID> (19)
19

>  <Activity> (19)
-1.08

$$$$
2-cyano-7-nitrofluorene
csChmFindW1207992328
[comments]
 18 20  0     0  0  0  0  0  0  1 V2000
    2.3787    3.4981    0.0000 C   0  0  0  0  0  0  0  0  0  0
    2.3787    2.0988    0.0000 C   0  0  0  0  0  0  0  0  0  0
    3.5913    1.3992    0.0000 C   0  0  0  0  0  0  0  0  0  0
    4.8040    2.0988    0.0000 C   0  0  0  0  0  0  0  0  0  0
    4.8040    3.4981    0.0000 C   0  0  0  0  0  0  0  0  0  0
    3.5913    4.1977    0.0000 C   0  0  0  0  0  0  0  0  0  0
    6.0167    1.3992    0.0000 C   0  0  0  0  0  0  0  0  0  0
    7.2293    2.0988    0.0000 C   0  0  0  0  0  0  0  0  0  0
    7.2293    3.4981    0.0000 C   0  0  0  0  0  0  0  0  0  0
    8.4420    1.3992    0.0000 C   0  0  0  0  0  0  0  0  0  0
    9.6547    2.0988    0.0000 C   0  0  0  0  0  0  0  0  0  0
    9.6547    3.4981    0.0000 C   0  0  0  0  0  0  0  0  0  0
    8.4420    4.1977    0.0000 C   0  0  0  0  0  0  0  0  0  0
   10.8673    1.3992    0.0000 C   0  0  0  0  0  0  0  0  0  0
   12.0800    0.6996    0.0000 N   0  0  0  0  0  0  0  0  0  0
    1.1660    1.3992    0.0000 N   0  3  0  0  0  0  0  0  0  0
    0.0000    2.0988    0.0000 O   0  5  0  0  0  0  0  0  0  0
    1.1660    0.0000    0.0000 O   0  0  0  0  0  0  0  0  0  0
  1  2  4  0  0  0  0
  2  3  4  0  0  0  0
  3  4  4  0  0  0  0
  4  5  4  0  0  0  0
  5  6  4  0  0  0  0
  1  6  4  0  0  0  0
  4  7  1  0  0  0  0
  7  8  1  0  0  0  0
  8  9  4  0  0  0  0
  5  9  1  0  0  0  0
  8 10  4  0  0  0  0
 10 11  4  0  0  0  0
 11 12  4  0  0  0  0
 12 13  4  0  0  0  0
  9 13  4  0  0  0  0
 11 14  1  0  0  0  0
 14 15  3  0  0  0  0
  2 16  1  0  0  0  0
 16 17  1  0  0  0  0
 16 18  2  0  0  0  0
M  END
>  <Compound Name> (20)
2-cyano-7-nitrofluorene

>  <Formula> (20)
C14H8N2O2

>  <LogP> (20)
3.4

>  <LUMO> (20)
-1.764

>  <MOL_ID> (20)
20

>  <Activity> (20)
2.51

$$$$
4,3'-dinitrobiphenyl
csChmFindW1207992328
[comments]
 18 19  0     0  0  0  0  0  0  1 V2000
    2.0522    2.4253    0.0000 C   0  0  0  0  0  0  0  0  0  0
    1.3526    1.2127    0.0000 C   0  0  0  0  0  0  0  0  0  0
    2.0522    0.0000    0.0000 C   0  0  0  0  0  0  0  0  0  0
    3.4514    0.0000    0.0000 C   0  0  0  0  0  0  0  0  0  0
    4.1510    1.2127    0.0000 C   0  0  0  0  0  0  0  0  0  0
    3.4514    2.4253    0.0000 C   0  0  0  0  0  0  0  0  0  0
    5.5503    1.2127    0.0000 C   0  0  0  0  0  0  0  0  0  0
    6.2499    0.0000    0.0000 C   0  0  0  0  0  0  0  0  0  0
    7.6491    0.0000    0.0000 C   0  0  0  0  0  0  0  0  0  0
    8.3487    1.2127    0.0000 C   0  0  0  0  0  0  0  0  0  0
    7.6491    2.4253    0.0000 C   0  0  0  0  0  0  0  0  0  0
    6.2499    2.4253    0.0000 C   0  0  0  0  0  0  0  0  0  0
    9.7480    1.2127    0.0000 N   0  3  0  0  0  0  0  0  0  0
   10.4476    0.0000    0.0000 O   0  5  0  0  0  0  0  0  0  0
   10.4476    2.4253    0.0000 O   0  0  0  0  0  0  0  0  0  0
    1.3526    3.6380    0.0000 N   0  3  0  0  0  0  0  0  0  0
    2.0522    4.8507    0.0000 O   0  5  0  0  0  0  0  0  0  0
    0.0000    3.6380    0.0000 O   0  0  0  0  0  0  0  0  0  0
  1  2  4  0  0  0  0
  2  3  4  0  0  0  0
  3  4  4  0  0  0  0
  4  5  4  0  0  0  0
  5  6  4  0  0  0  0
  1  6  4  0  0  0  0
  5  7  1  0  0  0  0
  7  8  4  0  0  0  0
  8  9  4  0  0  0  0
  9 10  4  0  0  0  0
 10 11  4  0  0  0  0
 11 12  4  0  0  0  0
  7 12  4  0  0  0  0
 10 13  1  0  0  0  0
 13 14  1  0  0  0  0
 13 15  2  0  0  0  0
  1 16  1  0  0  0  0
 16 17  1  0  0  0  0
 16 18  2  0  0  0  0
M  END
>  <Compound Name> (21)
4,3'-dinitrobiphenyl

>  <Formula> (21)
C12H8N2O4

>  <LogP> (21)
3.52

>  <LUMO> (21)
-1.665

>  <MOL_ID> (21)
21

>  <Activity> (21)
0.23

$$$$
2-iodo-7-nitrofluorene
csChmFindW1207992328
[comments]
 17 19  0     0  0  0  0  0  0  1 V2000
    2.3333    3.5000    0.0000 C   0  0  0  0  0  0  0  0  0  0
    2.3333    2.1000    0.0000 C   0  0  0  0  0  0  0  0  0  0
    3.5467    1.4000    0.0000 C   0  0  0  0  0  0  0  0  0  0
    4.7600    2.1000    0.0000 C   0  0  0  0  0  0  0  0  0  0
    4.7600    3.5000    0.0000 C   0  0  0  0  0  0  0  0  0  0
    3.5467    4.1533    0.0000 C   0  0  0  0  0  0  0  0  0  0
    5.9733    1.4000    0.0000 C   0  0  0  0  0  0  0  0  0  0
    7.1867    2.1000    0.0000 C   0  0  0  0  0  0  0  0  0  0
    7.1867    3.5000    0.0000 C   0  0  0  0  0  0  0  0  0  0
    8.4000    1.4000    0.0000 C   0  0  0  0  0  0  0  0  0  0
    9.6133    2.1000    0.0000 C   0  0  0  0  0  0  0  0  0  0
    9.6133    3.5000    0.0000 C   0  0  0  0  0  0  0  0  0  0
    8.4000    4.1533    0.0000 C   0  0  0  0  0  0  0  0  0  0
    1.1667    1.4000    0.0000 N   0  3  0  0  0  0  0  0  0  0
   -0.0000    2.1000    0.0000 O   0  5  0  0  0  0  0  0  0  0
    1.1667   -0.0000    0.0000 O   0  0  0  0  0  0  0  0  0  0
   10.8267    1.4000    0.0000 I   0  0  0  0  0  0  0  0  0  0
  1  2  4  0  0  0  0
  2  3  4  0  0  0  0
  3  4  4  0  0  0  0
  4  5  4  0  0  0  0
  5  6  4  0  0  0  0
  1  6  4  0  0  0  0
  4  7  1  0  0  0  0
  7  8  1  0  0  0  0
  8  9  4  0  0  0  0
  5  9  1  0  0  0  0
  8 10  4  0  0  0  0
 10 11  4  0  0  0  0
 11 12  4  0  0  0  0
 12 13  4  0  0  0  0
  9 13  4  0  0  0  0
  2 14  1  0  0  0  0
 14 15  1  0  0  0  0
 14 16  2  0  0  0  0
 11 17  1  0  0  0  0
M  END
>  <Compound Name> (22)
2-iodo-7-nitrofluorene

>  <Formula> (22)
C13H8INO2

>  <LogP> (22)
5.09

>  <LUMO> (22)
-1.602

>  <MOL_ID> (22)
22

>  <Activity> (22)
2.97

$$$$
2-nitrobenz[j]aceanthrylene
csChmFindW1207992328
[comments]
 23 27  0     0  0  0  0  0  0  1 V2000
    6.0167    4.1977    0.0000 C   0  0  0  0  0  0  0  0  0  0
    6.0167    2.7985    0.0000 C   0  0  0  0  0  0  0  0  0  0
    7.2294    2.0988    0.0000 C   0  0  0  0  0  0  0  0  0  0
    8.4420    2.7985    0.0000 C   0  0  0  0  0  0  0  0  0  0
    8.4420    4.1977    0.0000 C   0  0  0  0  0  0  0  0  0  0
    7.2294    4.8973    0.0000 C   0  0  0  0  0  0  0  0  0  0
    4.8040    4.8973    0.0000 C   0  0  0  0  0  0  0  0  0  0
    3.5914    4.1977    0.0000 C   0  0  0  0  0  0  0  0  0  0
    3.5914    2.7985    0.0000 C   0  0  0  0  0  0  0  0  0  0
    4.8040    2.0988    0.0000 C   0  0  0  0  0  0  0  0  0  0
    7.2294    6.2965    0.0000 C   0  0  0  0  0  0  0  0  0  0
    4.8040    6.2965    0.0000 C   0  0  0  0  0  0  0  0  0  0
    2.3787    4.8973    0.0000 C   0  0  0  0  0  0  0  0  0  0
    1.1660    4.1977    0.0000 C   0  0  0  0  0  0  0  0  0  0
    1.1660    2.7985    0.0000 C   0  0  0  0  0  0  0  0  0  0
    2.3787    2.0988    0.0000 C   0  0  0  0  0  0  0  0  0  0
   -0.0000    2.0988    0.0000 C   0  0  0  0  0  0  0  0  0  0
   -0.0000    0.6996    0.0000 C   0  0  0  0  0  0  0  0  0  0
    1.1660   -0.0000    0.0000 C   0  0  0  0  0  0  0  0  0  0
    2.3787    0.6996    0.0000 C   0  0  0  0  0  0  0  0  0  0
    8.2088    7.2760    0.0000 N   0  3  0  0  0  0  0  0  0  0
    9.5614    6.9029    0.0000 O   0  5  0  0  0  0  0  0  0  0
    7.8357    8.6286    0.0000 O   0  0  0  0  0  0  0  0  0  0
  1  2  4  0  0  0  0
  2  3  4  0  0  0  0
  3  4  4  0  0  0  0
  4  5  4  0  0  0  0
  5  6  4  0  0  0  0
  1  6  4  0  0  0  0
  1  7  4  0  0  0  0
  7  8  4  0  0  0  0
  8  9  4  0  0  0  0
  9 10  4  0  0  0  0
  2 10  4  0  0  0  0
  6 11  1  0  0  0  0
  7 12  1  0  0  0  0
 11 12  2  0  0  0  0
  8 13  4  0  0  0  0
 13 14  4  0  0  0  0
 14 15  4  0  0  0  0
 15 16  4  0  0  0  0
  9 16  4  0  0  0  0
 15 17  4  0  0  0  0
 17 18  4  0  0  0  0
 18 19  4  0  0  0  0
 19 20  4  0  0  0  0
 16 20  4  0  0  0  0
 11 21  1  0  0  0  0
 21 22  1  0  0  0  0
 21 23  2  0  0  0  0
M  END
>  <Compound Name> (23)
2-nitrobenz[j]aceanthrylene

>  <Formula> (23)
C20H11NO2

>  <LogP> (23)
5.07

>  <LUMO> (23)
-2.164

>  <MOL_ID> (23)
23

>  <Activity> (23)
0.86

$$$$
1-nitrocoronene
csChmFindW1207992328
[comments]
 27 33  0     0  0  0  0  0  0  1 V2000
    3.5914    4.8973    0.0000 C   0  0  0  0  0  0  0  0  0  0
    2.3787    4.1977    0.0000 C   0  0  0  0  0  0  0  0  0  0
    2.3787    2.7985    0.0000 C   0  0  0  0  0  0  0  0  0  0
    3.5914    2.0988    0.0000 C   0  0  0  0  0  0  0  0  0  0
    4.8040    2.7985    0.0000 C   0  0  0  0  0  0  0  0  0  0
    4.8040    4.1977    0.0000 C   0  0  0  0  0  0  0  0  0  0
    3.5914    6.2965    0.0000 C   0  0  0  0  0  0  0  0  0  0
    2.3787    6.9962    0.0000 C   0  0  0  0  0  0  0  0  0  0
    1.1660    6.2965    0.0000 C   0  0  0  0  0  0  0  0  0  0
    1.1660    4.8973    0.0000 C   0  0  0  0  0  0  0  0  0  0
    6.0167    2.0988    0.0000 C   0  0  0  0  0  0  0  0  0  0
    7.2294    2.7985    0.0000 C   0  0  0  0  0  0  0  0  0  0
    7.2294    4.1977    0.0000 C   0  0  0  0  0  0  0  0  0  0
    6.0167    4.8973    0.0000 C   0  0  0  0  0  0  0  0  0  0
    1.1660    2.0988    0.0000 C   0  0  0  0  0  0  0  0  0  0
    1.1660    0.6996    0.0000 C   0  0  0  0  0  0  0  0  0  0
    2.3787    0.0000    0.0000 C   0  0  0  0  0  0  0  0  0  0
    3.5914    0.6996    0.0000 C   0  0  0  0  0  0  0  0  0  0
   -0.0000    4.1977    0.0000 C   0  0  0  0  0  0  0  0  0  0
   -0.0000    2.7985    0.0000 C   0  0  0  0  0  0  0  0  0  0
    6.0167    6.2965    0.0000 C   0  0  0  0  0  0  0  0  0  0
    4.8040    6.9962    0.0000 C   0  0  0  0  0  0  0  0  0  0
    4.8040    0.0000    0.0000 C   0  0  0  0  0  0  0  0  0  0
    6.0167    0.6996    0.0000 C   0  0  0  0  0  0  0  0  0  0
    4.8040    8.3954    0.0000 N   0  3  0  0  0  0  0  0  0  0
    6.0167    9.0483    0.0000 O   0  5  0  0  0  0  0  0  0  0
    3.5914    9.0483    0.0000 O   0  0  0  0  0  0  0  0  0  0
  1  2  4  0  0  0  0
  2  3  4  0  0  0  0
  3  4  4  0  0  0  0
  4  5  4  0  0  0  0
  5  6  4  0  0  0  0
  1  6  4  0  0  0  0
  1  7  4  0  0  0  0
  7  8  4  0  0  0  0
  8  9  4  0  0  0  0
  9 10  4  0  0  0  0
  2 10  4  0  0  0  0
  5 11  4  0  0  0  0
 11 12  4  0  0  0  0
 12 13  4  0  0  0  0
 13 14  4  0  0  0  0
  6 14  4  0  0  0  0
  3 15  4  0  0  0  0
 15 16  4  0  0  0  0
 16 17  4  0  0  0  0
 17 18  4  0  0  0  0
  4 18  4  0  0  0  0
 10 19  4  0  0  0  0
 19 20  4  0  0  0  0
 15 20  4  0  0  0  0
 14 21  4  0  0  0  0
 21 22  4  0  0  0  0
  7 22  4  0  0  0  0
 18 23  4  0  0  0  0
 23 24  4  0  0  0  0
 11 24  4  0  0  0  0
 22 25  1  0  0  0  0
 25 26  1  0  0  0  0
 25 27  2  0  0  0  0
M  END
>  <Compound Name> (24)
1-nitrocoronene

>  <Formula> (24)
C24H11NO2

>  <LogP> (24)
6.79

>  <LUMO> (24)
-1.728

>  <MOL_ID> (24)
24

>  <Activity> (24)
0.45

$$$$
2-hydroxy-7-nitrofluorene
csChmFindW1207992328
[comments]
 17 19  0     0  0  0  0  0  0  1 V2000
    2.3333    3.5000    0.0000 C   0  0  0  0  0  0  0  0  0  0
    2.3333    2.1000    0.0000 C   0  0  0  0  0  0  0  0  0  0
    3.5467    1.4000    0.0000 C   0  0  0  0  0  0  0  0  0  0
    4.7600    2.1000    0.0000 C   0  0  0  0  0  0  0  0  0  0
    4.7600    3.5000    0.0000 C   0  0  0  0  0  0  0  0  0  0
    3.5467    4.1533    0.0000 C   0  0  0  0  0  0  0  0  0  0
    5.9733    1.4000    0.0000 C   0  0  0  0  0  0  0  0  0  0
    7.1867    2.1000    0.0000 C   0  0  0  0  0  0  0  0  0  0
    7.1867    3.5000    0.0000 C   0  0  0  0  0  0  0  0  0  0
    8.4000    1.4000    0.0000 C   0  0  0  0  0  0  0  0  0  0
    9.6133    2.1000    0.0000 C   0  0  0  0  0  0  0  0  0  0
    9.6133    3.5000    0.0000 C   0  0  0  0  0  0  0  0  0  0
    8.4000    4.1533    0.0000 C   0  0  0  0  0  0  0  0  0  0
    1.1667    1.4000    0.0000 N   0  3  0  0  0  0  0  0  0  0
   -0.0000    2.1000    0.0000 O   0  5  0  0  0  0  0  0  0  0
    1.1667   -0.0000    0.0000 O   0  0  0  0  0  0  0  0  0  0
   10.8267    1.4000    0.0000 O   0  0  0  0  0  0  0  0  0  0
  1  2  4  0  0  0  0
  2  3  4  0  0  0  0
  3  4  4  0  0  0  0
  4  5  4  0  0  0  0
  5  6  4  0  0  0  0
  1  6  4  0  0  0  0
  4  7  1  0  0  0  0
  7  8  1  0  0  0  0
  8  9  4  0  0  0  0
  5  9  1  0  0  0  0
  8 10  4  0  0  0  0
 10 11  4  0  0  0  0
 11 12  4  0  0  0  0
 12 13  4  0  0  0  0
  9 13  4  0  0  0  0
  2 14  1  0  0  0  0
 14 15  1  0  0  0  0
 14 16  2  0  0  0  0
 11 17  1  0  0  0  0
M  END
>  <Compound Name> (25)
2-hydroxy-7-nitrofluorene

>  <Formula> (25)
C13H9NO3

>  <LogP> (25)
3.43

>  <LUMO> (25)
-1.398

>  <MOL_ID> (25)
25

>  <Activity> (25)
1.68

$$$$
1-chloro-2,4-dinitrobenzene
csChmFindW1207992328
[comments]
 13 13  0     0  0  0  0  0  0  1 V2000
    2.0533    3.6400    0.0000 C   0  0  0  0  0  0  0  0  0  0
    2.7533    2.4267    0.0000 C   0  0  0  0  0  0  0  0  0  0
    4.1533    2.4267    0.0000 C   0  0  0  0  0  0  0  0  0  0
    4.8533    3.6400    0.0000 C   0  0  0  0  0  0  0  0  0  0
    4.1533    4.8533    0.0000 C   0  0  0  0  0  0  0  0  0  0
    2.7533    4.8533    0.0000 C   0  0  0  0  0  0  0  0  0  0
    6.2533    3.6400    0.0000 Cl  0  0  0  0  0  0  0  0  0  0
    4.8533    1.2133    0.0000 N   0  3  0  0  0  0  0  0  0  0
    4.1533    0.0000    0.0000 O   0  5  0  0  0  0  0  0  0  0
    6.2533    1.2133    0.0000 O   0  0  0  0  0  0  0  0  0  0
    0.6533    3.6400    0.0000 N   0  3  0  0  0  0  0  0  0  0
   -0.0000    4.8533    0.0000 O   0  5  0  0  0  0  0  0  0  0
   -0.0000    2.4267    0.0000 O   0  0  0  0  0  0  0  0  0  0
  1  2  4  0  0  0  0
  2  3  4  0  0  0  0
  3  4  4  0  0  0  0
  4  5  4  0  0  0  0
  5  6  4  0  0  0  0
  1  6  4  0  0  0  0
  4  7  1  0  0  0  0
  3  8  1  0  0  0  0
  8  9  1  0  0  0  0
  8 10  2  0  0  0  0
  1 11  1  0  0  0  0
 11 12  1  0  0  0  0
 11 13  2  0  0  0  0
M  END
>  <Compound Name> (26)
1-chloro-2,4-dinitrobenzene

>  <Formula> (26)
C6H3ClN2O4

>  <LogP> (26)
2.17

>  <LUMO> (26)
-2.072

>  <MOL_ID> (26)
26

>  <Activity> (26)
0.3

$$$$
1-nitrobenzo[a]pyrene
csChmFindW1207992328
[comments]
 23 27  0     0  0  0  0  0  0  1 V2000
   -0.0000    2.0989    0.0000 C   0  0  0  0  0  0  0  0  0  0
   -0.0000    0.6996    0.0000 C   0  0  0  0  0  0  0  0  0  0
    1.1660    0.0000    0.0000 C   0  0  0  0  0  0  0  0  0  0
    2.3787    0.6996    0.0000 C   0  0  0  0  0  0  0  0  0  0
    2.3787    2.0989    0.0000 C   0  0  0  0  0  0  0  0  0  0
    1.1660    2.7985    0.0000 C   0  0  0  0  0  0  0  0  0  0
    3.5914    0.0000    0.0000 C   0  0  0  0  0  0  0  0  0  0
    4.8040    0.6996    0.0000 C   0  0  0  0  0  0  0  0  0  0
    4.8040    2.0989    0.0000 C   0  0  0  0  0  0  0  0  0  0
    3.5914    2.7985    0.0000 C   0  0  0  0  0  0  0  0  0  0
    6.0167    0.0000    0.0000 C   0  0  0  0  0  0  0  0  0  0
    7.2294    0.6996    0.0000 C   0  0  0  0  0  0  0  0  0  0
    7.2294    2.0989    0.0000 C   0  0  0  0  0  0  0  0  0  0
    6.0167    2.7985    0.0000 C   0  0  0  0  0  0  0  0  0  0
    6.0167    4.1977    0.0000 C   0  0  0  0  0  0  0  0  0  0
    4.8040    4.8973    0.0000 C   0  0  0  0  0  0  0  0  0  0
    3.5914    4.1977    0.0000 C   0  0  0  0  0  0  0  0  0  0
    8.4420    2.7985    0.0000 C   0  0  0  0  0  0  0  0  0  0
    8.4420    4.1977    0.0000 C   0  0  0  0  0  0  0  0  0  0
    7.2294    4.8973    0.0000 C   0  0  0  0  0  0  0  0  0  0
    7.2294    6.2965    0.0000 N   0  3  0  0  0  0  0  0  0  0
    8.4420    6.9495    0.0000 O   0  5  0  0  0  0  0  0  0  0
    6.0167    6.9495    0.0000 O   0  0  0  0  0  0  0  0  0  0
  1  2  4  0  0  0  0
  2  3  4  0  0  0  0
  3  4  4  0  0  0  0
  4  5  4  0  0  0  0
  5  6  4  0  0  0  0
  1  6  4  0  0  0  0
  4  7  4  0  0  0  0
  7  8  4  0  0  0  0
  8  9  4  0  0  0  0
  9 10  4  0  0  0  0
  5 10  4  0  0  0  0
  8 11  4  0  0  0  0
 11 12  4  0  0  0  0
 12 13  4  0  0  0  0
 13 14  4  0  0  0  0
  9 14  4  0  0  0  0
 14 15  4  0  0  0  0
 15 16  4  0  0  0  0
 16 17  4  0  0  0  0
 10 17  4  0  0  0  0
 13 18  4  0  0  0  0
 18 19  4  0  0  0  0
 19 20  4  0  0  0  0
 15 20  4  0  0  0  0
 20 21  1  0  0  0  0
 21 22  1  0  0  0  0
 21 23  2  0  0  0  0
M  END
>  <Compound Name> (27)
1-nitrobenzo[a]pyrene

>  <Formula> (27)
C20H11NO2

>  <LogP> (27)
5.87

>  <LUMO> (27)
-1.801

>  <MOL_ID> (27)
27

>  <Activity> (27)
2.63

$$$$
2-fluoro-7-nitrofluorene
csChmFindW1207992328
[comments]
 17 19  0     0  0  0  0  0  0  1 V2000
    2.3333    3.5000    0.0000 C   0  0  0  0  0  0  0  0  0  0
    2.3333    2.1000    0.0000 C   0  0  0  0  0  0  0  0  0  0
    3.5467    1.4000    0.0000 C   0  0  0  0  0  0  0  0  0  0
    4.7600    2.1000    0.0000 C   0  0  0  0  0  0  0  0  0  0
    4.7600    3.5000    0.0000 C   0  0  0  0  0  0  0  0  0  0
    3.5467    4.1533    0.0000 C   0  0  0  0  0  0  0  0  0  0
    5.9733    1.4000    0.0000 C   0  0  0  0  0  0  0  0  0  0
    7.1867    2.1000    0.0000 C   0  0  0  0  0  0  0  0  0  0
    7.1867    3.5000    0.0000 C   0  0  0  0  0  0  0  0  0  0
    8.4000    1.4000    0.0000 C   0  0  0  0  0  0  0  0  0  0
    9.6133    2.1000    0.0000 C   0  0  0  0  0  0  0  0  0  0
    9.6133    3.5000    0.0000 C   0  0  0  0  0  0  0  0  0  0
    8.4000    4.1533    0.0000 C   0  0  0  0  0  0  0  0  0  0
    1.1667    1.4000    0.0000 N   0  3  0  0  0  0  0  0  0  0
   -0.0000    2.1000    0.0000 O   0  5  0  0  0  0  0  0  0  0
    1.1667   -0.0000    0.0000 O   0  0  0  0  0  0  0  0  0  0
   10.8267    1.4000    0.0000 F   0  0  0  0  0  0  0  0  0  0
  1  2  4  0  0  0  0
  2  3  4  0  0  0  0
  3  4  4  0  0  0  0
  4  5  4  0  0  0  0
  5  6  4  0  0  0  0
  1  6  4  0  0  0  0
  4  7  1  0  0  0  0
  7  8  1  0  0  0  0
  8  9  4  0  0  0  0
  5  9  1  0  0  0  0
  8 10  4  0  0  0  0
 10 11  4  0  0  0  0
 11 12  4  0  0  0  0
 12 13  4  0  0  0  0
  9 13  4  0  0  0  0
  2 14  1  0  0  0  0
 14 15  1  0  0  0  0
 14 16  2  0  0  0  0
 11 17  1  0  0  0  0
M  END
>  <Compound Name> (28)
2-fluoro-7-nitrofluorene

>  <Formula> (28)
C13H8FNO2

>  <LogP> (28)
4.11

>  <LUMO> (28)
-1.558

>  <MOL_ID> (28)
28

>  <Activity> (28)
2.68

$$$$
2,4,7-trinitro-9-fluorenone
csChmFindW1207992328
[comments]
 23 25  0     0  0  0  0  0  0  1 V2000
    2.3800    3.5000    0.0000 C   0  0  0  0  0  0  0  0  0  0
    2.3800    2.1000    0.0000 C   0  0  0  0  0  0  0  0  0  0
    3.5933    1.4000    0.0000 C   0  0  0  0  0  0  0  0  0  0
    4.8066    2.1000    0.0000 C   0  0  0  0  0  0  0  0  0  0
    4.8066    3.5000    0.0000 C   0  0  0  0  0  0  0  0  0  0
    3.5933    4.1533    0.0000 C   0  0  0  0  0  0  0  0  0  0
    6.0200    1.4000    0.0000 C   0  0  0  0  0  0  0  0  0  0
    7.2333    2.1000    0.0000 C   0  0  0  0  0  0  0  0  0  0
    7.2333    3.5000    0.0000 C   0  0  0  0  0  0  0  0  0  0
    8.4466    1.4000    0.0000 C   0  0  0  0  0  0  0  0  0  0
    9.6600    2.1000    0.0000 C   0  0  0  0  0  0  0  0  0  0
    9.6600    3.5000    0.0000 C   0  0  0  0  0  0  0  0  0  0
    8.4466    4.1533    0.0000 C   0  0  0  0  0  0  0  0  0  0
    6.0200   -0.0000    0.0000 O   0  0  0  0  0  0  0  0  0  0
    1.1667    1.4000    0.0000 N   0  3  0  0  0  0  0  0  0  0
    0.0000    2.1000    0.0000 O   0  5  0  0  0  0  0  0  0  0
    1.1667   -0.0000    0.0000 O   0  0  0  0  0  0  0  0  0  0
   10.8733    1.4000    0.0000 N   0  3  0  0  0  0  0  0  0  0
   10.8733   -0.0000    0.0000 O   0  5  0  0  0  0  0  0  0  0
   12.0866    2.1000    0.0000 O   0  0  0  0  0  0  0  0  0  0
    8.4466    5.5533    0.0000 N   0  3  0  0  0  0  0  0  0  0
    9.6600    6.2066    0.0000 O   0  5  0  0  0  0  0  0  0  0
    7.2333    6.2066    0.0000 O   0  0  0  0  0  0  0  0  0  0
  1  2  4  0  0  0  0
  2  3  4  0  0  0  0
  3  4  4  0  0  0  0
  4  5  4  0  0  0  0
  5  6  4  0  0  0  0
  1  6  4  0  0  0  0
  4  7  1  0  0  0  0
  7  8  1  0  0  0  0
  8  9  4  0  0  0  0
  5  9  1  0  0  0  0
  8 10  4  0  0  0  0
 10 11  4  0  0  0  0
 11 12  4  0  0  0  0
 12 13  4  0  0  0  0
  9 13  4  0  0  0  0
  7 14  2  0  0  0  0
  2 15  1  0  0  0  0
 15 16  1  0  0  0  0
 15 17  2  0  0  0  0
 11 18  1  0  0  0  0
 18 19  1  0  0  0  0
 18 20  2  0  0  0  0
 13 21  1  0  0  0  0
 21 22  1  0  0  0  0
 21 23  2  0  0  0  0
M  END
>  <Compound Name> (29)
2,4,7-trinitro-9-fluorenone

>  <Formula> (29)
C13H5N3O7

>  <LogP> (29)
2.42

>  <LUMO> (29)
-2.837

>  <MOL_ID> (29)
29

>  <Activity> (29)
3.41

$$$$
4-nitrobenz[k]acephenanthrylene
csChmFindW1207992328
[comments]
 23 27  0     0  0  0  0  0  0  1 V2000
    3.4981    6.2965    0.0000 C   0  0  0  0  0  0  0  0  0  0
    3.4981    4.8973    0.0000 C   0  0  0  0  0  0  0  0  0  0
    4.7107    4.1977    0.0000 C   0  0  0  0  0  0  0  0  0  0
    5.9234    4.8973    0.0000 C   0  0  0  0  0  0  0  0  0  0
    5.9234    6.2965    0.0000 C   0  0  0  0  0  0  0  0  0  0
    4.7107    6.9961    0.0000 C   0  0  0  0  0  0  0  0  0  0
    2.2854    6.9961    0.0000 C   0  0  0  0  0  0  0  0  0  0
    1.0727    6.2965    0.0000 C   0  0  0  0  0  0  0  0  0  0
    1.0727    4.8973    0.0000 C   0  0  0  0  0  0  0  0  0  0
    2.2854    4.1977    0.0000 C   0  0  0  0  0  0  0  0  0  0
    4.7107    8.3953    0.0000 C   0  0  0  0  0  0  0  0  0  0
    2.2854    8.3953    0.0000 C   0  0  0  0  0  0  0  0  0  0
    7.1361    2.7984    0.0000 C   0  0  0  0  0  0  0  0  0  0
    5.9234    2.0988    0.0000 C   0  0  0  0  0  0  0  0  0  0
    5.9234    0.6996    0.0000 C   0  0  0  0  0  0  0  0  0  0
    7.1361    0.0000    0.0000 C   0  0  0  0  0  0  0  0  0  0
    8.3487    0.6996    0.0000 C   0  0  0  0  0  0  0  0  0  0
    8.3487    2.0988    0.0000 C   0  0  0  0  0  0  0  0  0  0
    7.1361    4.1977    0.0000 C   0  0  0  0  0  0  0  0  0  0
    4.7107    2.7984    0.0000 C   0  0  0  0  0  0  0  0  0  0
    1.3059    9.3748    0.0000 N   0  3  0  0  0  0  0  0  0  0
    1.6791   10.7274    0.0000 O   0  5  0  0  0  0  0  0  0  0
    0.0000    9.0017    0.0000 O   0  0  0  0  0  0  0  0  0  0
  1  2  4  0  0  0  0
  2  3  4  0  0  0  0
  3  4  4  0  0  0  0
  4  5  4  0  0  0  0
  5  6  4  0  0  0  0
  1  6  4  0  0  0  0
  1  7  4  0  0  0  0
  7  8  4  0  0  0  0
  8  9  4  0  0  0  0
  9 10  4  0  0  0  0
  2 10  4  0  0  0  0
  6 11  1  0  0  0  0
  7 12  1  0  0  0  0
 11 12  2  0  0  0  0
 13 14  4  0  0  0  0
 14 15  4  0  0  0  0
 15 16  4  0  0  0  0
 16 17  4  0  0  0  0
 17 18  4  0  0  0  0
 13 18  4  0  0  0  0
 13 19  4  0  0  0  0
  4 19  4  0  0  0  0
  3 20  4  0  0  0  0
 14 20  4  0  0  0  0
 12 21  1  0  0  0  0
 21 22  1  0  0  0  0
 21 23  2  0  0  0  0
M  END
>  <Compound Name> (30)
4-nitrobenz[k]acephenanthrylene

>  <Formula> (30)
C20H11NO2

>  <LogP> (30)
5.07

>  <LUMO> (30)
-2.005

>  <MOL_ID> (30)
30

>  <Activity> (30)
0.67

$$$$
1,2-dinitrofluoranthene
csChmFindW1207992328
[comments]
 22 25  0     0  0  0  0  0  0  1 V2000
    2.9867    8.0267    0.0000 C   0  0  0  0  0  0  0  0  0  0
    1.5867    8.0267    0.0000 C   0  0  0  0  0  0  0  0  0  0
    0.8867    6.8133    0.0000 C   0  0  0  0  0  0  0  0  0  0
    1.5867    5.5533    0.0000 C   0  0  0  0  0  0  0  0  0  0
    2.9867    5.5533    0.0000 C   0  0  0  0  0  0  0  0  0  0
    3.6867    6.8133    0.0000 C   0  0  0  0  0  0  0  0  0  0
    1.1667    4.2000    0.0000 C   0  0  0  0  0  0  0  0  0  0
    2.2867    3.3600    0.0000 C   0  0  0  0  0  0  0  0  0  0
    3.4067    4.1533    0.0000 C   0  0  0  0  0  0  0  0  0  0
    2.2867    2.1000    0.0000 C   0  0  0  0  0  0  0  0  0  0
    1.1667    1.4000    0.0000 C   0  0  0  0  0  0  0  0  0  0
   -0.0000    3.5000    0.0000 C   0  0  0  0  0  0  0  0  0  0
   -0.0000    2.1000    0.0000 C   0  0  0  0  0  0  0  0  0  0
    3.4067    1.4933    0.0000 C   0  0  0  0  0  0  0  0  0  0
    4.5267    2.1000    0.0000 C   0  0  0  0  0  0  0  0  0  0
    4.5267    3.3600    0.0000 C   0  0  0  0  0  0  0  0  0  0
    5.7867    4.0600    0.0000 N   0  3  0  0  0  0  0  0  0  0
    6.9067    3.3600    0.0000 O   0  5  0  0  0  0  0  0  0  0
    5.7867    5.4600    0.0000 O   0  0  0  0  0  0  0  0  0  0
    5.7867    1.4000    0.0000 N   0  3  0  0  0  0  0  0  0  0
    5.7867   -0.0000    0.0000 O   0  5  0  0  0  0  0  0  0  0
    6.9067    2.1000    0.0000 O   0  0  0  0  0  0  0  0  0  0
  1  2  4  0  0  0  0
  2  3  4  0  0  0  0
  3  4  4  0  0  0  0
  4  5  4  0  0  0  0
  5  6  4  0  0  0  0
  1  6  4  0  0  0  0
  4  7  1  0  0  0  0
  7  8  4  0  0  0  0
  8  9  4  0  0  0  0
  5  9  1  0  0  0  0
 10 11  4  0  0  0  0
  8 10  4  0  0  0  0
  7 12  4  0  0  0  0
 12 13  4  0  0  0  0
 11 13  4  0  0  0  0
 10 14  4  0  0  0  0
 14 15  4  0  0  0  0
 15 16  4  0  0  0  0
  9 16  4  0  0  0  0
 16 17  1  0  0  0  0
 17 18  1  0  0  0  0
 17 19  2  0  0  0  0
 15 20  1  0  0  0  0
 20 21  1  0  0  0  0
 20 22  2  0  0  0  0
M  END
>  <Compound Name> (31)
1,2-dinitrofluoranthene

>  <Formula> (31)
C16H8N2O4

>  <LogP> (31)
4.44

>  <LUMO> (31)
-2.055

>  <MOL_ID> (31)
31

>  <Activity> (31)
3.11

$$$$
2,4,3',4'-tetranitrobiphenyl
csChmFindW1207992328
[comments]
 24 25  0     0  0  0  0  0  0  1 V2000
    2.7518    4.8507    0.0000 C   0  0  0  0  0  0  0  0  0  0
    2.0522    3.6380    0.0000 C   0  0  0  0  0  0  0  0  0  0
    2.7518    2.4253    0.0000 C   0  0  0  0  0  0  0  0  0  0
    4.1510    2.4253    0.0000 C   0  0  0  0  0  0  0  0  0  0
    4.8507    3.6380    0.0000 C   0  0  0  0  0  0  0  0  0  0
    4.1510    4.8507    0.0000 C   0  0  0  0  0  0  0  0  0  0
    6.2499    3.6380    0.0000 C   0  0  0  0  0  0  0  0  0  0
    6.9495    2.4253    0.0000 C   0  0  0  0  0  0  0  0  0  0
    8.3487    2.4253    0.0000 C   0  0  0  0  0  0  0  0  0  0
    9.0484    3.6380    0.0000 C   0  0  0  0  0  0  0  0  0  0
    8.3487    4.8507    0.0000 C   0  0  0  0  0  0  0  0  0  0
    6.9495    4.8507    0.0000 C   0  0  0  0  0  0  0  0  0  0
    6.2499    6.0633    0.0000 N   0  3  0  0  0  0  0  0  0  0
    6.9495    7.2294    0.0000 O   0  5  0  0  0  0  0  0  0  0
    4.8507    6.0633    0.0000 O   0  0  0  0  0  0  0  0  0  0
   10.4476    3.6380    0.0000 N   0  3  0  0  0  0  0  0  0  0
   11.1472    2.4253    0.0000 O   0  5  0  0  0  0  0  0  0  0
   11.1472    4.8507    0.0000 O   0  0  0  0  0  0  0  0  0  0
    2.0522    1.2127    0.0000 N   0  3  0  0  0  0  0  0  0  0
    0.6530    1.2127    0.0000 O   0  5  0  0  0  0  0  0  0  0
    2.7518    0.0000    0.0000 O   0  0  0  0  0  0  0  0  0  0
    0.6530    3.6380    0.0000 N   0  3  0  0  0  0  0  0  0  0
   -0.0000    4.8507    0.0000 O   0  5  0  0  0  0  0  0  0  0
   -0.0000    2.4253    0.0000 O   0  0  0  0  0  0  0  0  0  0
  1  2  4  0  0  0  0
  2  3  4  0  0  0  0
  3  4  4  0  0  0  0
  4  5  4  0  0  0  0
  5  6  4  0  0  0  0
  1  6  4  0  0  0  0
  5  7  1  0  0  0  0
  7  8  4  0  0  0  0
  8  9  4  0  0  0  0
  9 10  4  0  0  0  0
 10 11  4  0  0  0  0
 11 12  4  0  0  0  0
  7 12  4  0  0  0  0
 12 13  1  0  0  0  0
 13 14  1  0  0  0  0
 13 15  2  0  0  0  0
 10 16  1  0  0  0  0
 16 17  1  0  0  0  0
 16 18  2  0  0  0  0
  3 19  1  0  0  0  0
 19 20  1  0  0  0  0
 19 21  2  0  0  0  0
  2 22  1  0  0  0  0
 22 23  1  0  0  0  0
 22 24  2  0  0  0  0
M  END
>  <Compound Name> (32)
2,4,3',4'-tetranitrobiphenyl

>  <Formula> (32)
C12H6N4O8

>  <LogP> (32)
3

>  <LUMO> (32)
-2.562

>  <MOL_ID> (32)
32

>  <Activity> (32)
1.54

$$$$
2-[(trifluoroacetyl)amino]-7-nitrofluorene
csChmFindW1207992328
[comments]
 23 25  0     0  0  0  0  0  0  1 V2000
    2.3333    3.5000    0.0000 C   0  0  0  0  0  0  0  0  0  0
    2.3333    2.1000    0.0000 C   0  0  0  0  0  0  0  0  0  0
    3.5467    1.4000    0.0000 C   0  0  0  0  0  0  0  0  0  0
    4.7600    2.1000    0.0000 C   0  0  0  0  0  0  0  0  0  0
    4.7600    3.5000    0.0000 C   0  0  0  0  0  0  0  0  0  0
    3.5467    4.1067    0.0000 C   0  0  0  0  0  0  0  0  0  0
    5.9733    1.4000    0.0000 C   0  0  0  0  0  0  0  0  0  0
    7.1867    2.1000    0.0000 C   0  0  0  0  0  0  0  0  0  0
    7.1867    3.5000    0.0000 C   0  0  0  0  0  0  0  0  0  0
    8.4000    1.4000    0.0000 C   0  0  0  0  0  0  0  0  0  0
    9.6133    2.1000    0.0000 C   0  0  0  0  0  0  0  0  0  0
    9.6133    3.5000    0.0000 C   0  0  0  0  0  0  0  0  0  0
    8.4000    4.1067    0.0000 C   0  0  0  0  0  0  0  0  0  0
    1.1200    1.4000    0.0000 N   0  3  0  0  0  0  0  0  0  0
   -0.0000    2.1000    0.0000 O   0  5  0  0  0  0  0  0  0  0
    1.1200   -0.0000    0.0000 O   0  0  0  0  0  0  0  0  0  0
   10.8267    1.4000    0.0000 N   0  0  0  1  0  0  0  0  0  0
   12.0400    2.1000    0.0000 C   0  0  0  0  0  0  0  0  0  0
   13.2533    1.4000    0.0000 O   0  0  0  0  0  0  0  0  0  0
   12.0400    3.5000    0.0000 C   0  0  0  0  0  0  0  0  0  0
   10.6400    3.5000    0.0000 F   0  0  0  0  0  0  0  0  0  0
   13.4400    3.5000    0.0000 F   0  0  0  0  0  0  0  0  0  0
   12.0400    4.9000    0.0000 F   0  0  0  0  0  0  0  0  0  0
  1  2  4  0  0  0  0
  2  3  4  0  0  0  0
  3  4  4  0  0  0  0
  4  5  4  0  0  0  0
  5  6  4  0  0  0  0
  1  6  4  0  0  0  0
  4  7  1  0  0  0  0
  7  8  1  0  0  0  0
  8  9  4  0  0  0  0
  5  9  1  0  0  0  0
  8 10  4  0  0  0  0
 10 11  4  0  0  0  0
 11 12  4  0  0  0  0
 12 13  4  0  0  0  0
  9 13  4  0  0  0  0
  2 14  1  0  0  0  0
 14 15  1  0  0  0  0
 14 16  2  0  0  0  0
 11 17  1  0  0  0  0
 17 18  1  0  0  0  0
 18 19  2  0  0  0  0
 18 20  1  0  0  0  0
 20 21  1  0  0  0  0
 20 22  1  0  0  0  0
 20 23  1  0  0  0  0
M  END
>  <Compound Name> (33)
2-[(trifluoroacetyl)amino]-7-nitrofluorene

>  <Formula> (33)
C15H9F3N2O3

>  <LogP> (33)
4.23

>  <LUMO> (33)
-1.591

>  <MOL_ID> (33)
33

>  <Activity> (33)
2.81

$$$$
2-nitronaphthalene
csChmFindW1207992328
[comments]
 13 14  0     0  0  0  0  0  0  1 V2000
    1.1660    2.7985    0.0000 C   0  0  0  0  0  0  0  0  0  0
   -0.0000    2.0988    0.0000 C   0  0  0  0  0  0  0  0  0  0
   -0.0000    0.6996    0.0000 C   0  0  0  0  0  0  0  0  0  0
    1.1660   -0.0000    0.0000 C   0  0  0  0  0  0  0  0  0  0
    2.3787    0.6996    0.0000 C   0  0  0  0  0  0  0  0  0  0
    2.3787    2.0988    0.0000 C   0  0  0  0  0  0  0  0  0  0
    3.5914   -0.0000    0.0000 C   0  0  0  0  0  0  0  0  0  0
    4.8040    0.6996    0.0000 C   0  0  0  0  0  0  0  0  0  0
    4.8040    2.0988    0.0000 C   0  0  0  0  0  0  0  0  0  0
    3.5914    2.7985    0.0000 C   0  0  0  0  0  0  0  0  0  0
    6.0167    2.7985    0.0000 N   0  3  0  0  0  0  0  0  0  0
    7.2294    2.0988    0.0000 O   0  5  0  0  0  0  0  0  0  0
    6.0167    4.1977    0.0000 O   0  0  0  0  0  0  0  0  0  0
  1  2  4  0  0  0  0
  2  3  4  0  0  0  0
  3  4  4  0  0  0  0
  4  5  4  0  0  0  0
  5  6  4  0  0  0  0
  1  6  4  0  0  0  0
  5  7  4  0  0  0  0
  7  8  4  0  0  0  0
  8  9  4  0  0  0  0
  9 10  4  0  0  0  0
  6 10  4  0  0  0  0
  9 11  1  0  0  0  0
 11 12  1  0  0  0  0
 11 13  2  0  0  0  0
M  END
>  <Compound Name> (34)
2-nitronaphthalene

>  <Formula> (34)
C10H7NO2

>  <LogP> (34)
3.24

>  <LUMO> (34)
-1.451

>  <MOL_ID> (34)
34

>  <Activity> (34)
-0.3

$$$$
2-amino-7-nitrofluorene
csChmFindW1207992328
[comments]
 17 19  0     0  0  0  0  0  0  1 V2000
    2.2867    3.5000    0.0000 C   0  0  0  0  0  0  0  0  0  0
    2.2867    2.1000    0.0000 C   0  0  0  0  0  0  0  0  0  0
    3.5467    1.4000    0.0000 C   0  0  0  0  0  0  0  0  0  0
    4.7600    2.1000    0.0000 C   0  0  0  0  0  0  0  0  0  0
    4.7600    3.5000    0.0000 C   0  0  0  0  0  0  0  0  0  0
    3.5467    4.1067    0.0000 C   0  0  0  0  0  0  0  0  0  0
    5.9267    1.4000    0.0000 C   0  0  0  0  0  0  0  0  0  0
    7.1867    2.1000    0.0000 C   0  0  0  0  0  0  0  0  0  0
    7.1867    3.5000    0.0000 C   0  0  0  0  0  0  0  0  0  0
    8.3533    1.4000    0.0000 C   0  0  0  0  0  0  0  0  0  0
    9.5667    2.1000    0.0000 C   0  0  0  0  0  0  0  0  0  0
    9.5667    3.5000    0.0000 C   0  0  0  0  0  0  0  0  0  0
    8.3533    4.1067    0.0000 C   0  0  0  0  0  0  0  0  0  0
    1.1200    1.4000    0.0000 N   0  3  0  0  0  0  0  0  0  0
   -0.0000    2.1000    0.0000 O   0  5  0  0  0  0  0  0  0  0
    1.1200   -0.0000    0.0000 O   0  0  0  0  0  0  0  0  0  0
   10.8267    1.4000    0.0000 N   0  0  0  2  0  0  0  0  0  0
  1  2  4  0  0  0  0
  2  3  4  0  0  0  0
  3  4  4  0  0  0  0
  4  5  4  0  0  0  0
  5  6  4  0  0  0  0
  1  6  4  0  0  0  0
  4  7  1  0  0  0  0
  7  8  1  0  0  0  0
  8  9  4  0  0  0  0
  5  9  1  0  0  0  0
  8 10  4  0  0  0  0
 10 11  4  0  0  0  0
 11 12  4  0  0  0  0
 12 13  4  0  0  0  0
  9 13  4  0  0  0  0
  2 14  1  0  0  0  0
 14 15  1  0  0  0  0
 14 16  2  0  0  0  0
 11 17  1  0  0  0  0
M  END
>  <Compound Name> (35)
2-amino-7-nitrofluorene

>  <Formula> (35)
C13H10N2O2

>  <LogP> (35)
3.06

>  <LUMO> (35)
-1.176

>  <MOL_ID> (35)
35

>  <Activity> (35)
1.56

$$$$
3-methyl-2-nitronaphthalene
csChmFindW1207992328
[comments]
 14 15  0     0  0  0  0  0  0  1 V2000
    1.1194    2.7984    0.0000 C   0  0  0  0  0  0  0  0  0  0
    0.0000    2.0988    0.0000 C   0  0  0  0  0  0  0  0  0  0
    0.0000    0.6996    0.0000 C   0  0  0  0  0  0  0  0  0  0
    1.1194    0.0000    0.0000 C   0  0  0  0  0  0  0  0  0  0
    2.3320    0.6996    0.0000 C   0  0  0  0  0  0  0  0  0  0
    2.3320    2.0988    0.0000 C   0  0  0  0  0  0  0  0  0  0
    3.5447    0.0000    0.0000 C   0  0  0  0  0  0  0  0  0  0
    4.7574    0.6996    0.0000 C   0  0  0  0  0  0  0  0  0  0
    4.7574    2.0988    0.0000 C   0  0  0  0  0  0  0  0  0  0
    3.5447    2.7984    0.0000 C   0  0  0  0  0  0  0  0  0  0
    5.9700    2.7984    0.0000 N   0  3  0  0  0  0  0  0  0  0
    7.1827    2.0988    0.0000 O   0  5  0  0  0  0  0  0  0  0
    5.9700    4.1510    0.0000 O   0  0  0  0  0  0  0  0  0  0
    5.9700    0.0000    0.0000 C   0  0  0  0  0  0  0  0  0  0
  1  2  4  0  0  0  0
  2  3  4  0  0  0  0
  3  4  4  0  0  0  0
  4  5  4  0  0  0  0
  5  6  4  0  0  0  0
  1  6  4  0  0  0  0
  5  7  4  0  0  0  0
  7  8  4  0  0  0  0
  8  9  4  0  0  0  0
  9 10  4  0  0  0  0
  6 10  4  0  0  0  0
  9 11  1  0  0  0  0
 11 12  1  0  0  0  0
 11 13  2  0  0  0  0
  8 14  1  0  0  0  0
M  END
>  <Compound Name> (36)
3-methyl-2-nitronaphthalene

>  <Formula> (36)
C11H9NO2

>  <LogP> (36)
3.43

>  <LUMO> (36)
-1.24

>  <MOL_ID> (36)
36

>  <Activity> (36)
0

$$$$
4-nitrostilbene
csChmFindW1207992328
[comments]
 17 18  0     0  0  0  0  0  0  1 V2000
    0.6533    0.9800    0.0000 C   0  0  0  0  0  0  0  0  0  0
    2.0533    0.9800    0.0000 C   0  0  0  0  0  0  0  0  0  0
    2.7533    2.1933    0.0000 C   0  0  0  0  0  0  0  0  0  0
    2.0533    3.4067    0.0000 C   0  0  0  0  0  0  0  0  0  0
    0.6533    3.4067    0.0000 C   0  0  0  0  0  0  0  0  0  0
    0.0000    2.1933    0.0000 C   0  0  0  0  0  0  0  0  0  0
    4.1533    2.1933    0.0000 C   0  0  0  0  0  0  0  0  0  0
    5.1333    1.2133    0.0000 C   0  0  0  0  0  0  0  0  0  0
    6.5333    1.2133    0.0000 C   0  0  0  0  0  0  0  0  0  0
    7.2333    0.0000    0.0000 C   0  0  0  0  0  0  0  0  0  0
    8.6333    0.0000    0.0000 C   0  0  0  0  0  0  0  0  0  0
    9.3333    1.2133    0.0000 C   0  0  0  0  0  0  0  0  0  0
    8.6333    2.4267    0.0000 C   0  0  0  0  0  0  0  0  0  0
    7.2333    2.4267    0.0000 C   0  0  0  0  0  0  0  0  0  0
   10.7333    1.2133    0.0000 N   0  3  0  0  0  0  0  0  0  0
   11.4333    0.0000    0.0000 O   0  5  0  0  0  0  0  0  0  0
   11.4333    2.4267    0.0000 O   0  0  0  0  0  0  0  0  0  0
  1  2  4  0  0  0  0
  2  3  4  0  0  0  0
  3  4  4  0  0  0  0
  4  5  4  0  0  0  0
  5  6  4  0  0  0  0
  1  6  4  0  0  0  0
  3  7  1  0  0  0  0
  7  8  2  0  0  0  0
  8  9  1  0  0  0  0
  9 10  4  0  0  0  0
 10 11  4  0  0  0  0
 11 12  4  0  0  0  0
 12 13  4  0  0  0  0
 13 14  4  0  0  0  0
  9 14  4  0  0  0  0
 12 15  1  0  0  0  0
 15 16  1  0  0  0  0
 15 17  2  0  0  0  0
M  END
>  <Compound Name> (37)
4-nitrostilbene

>  <Formula> (37)
C14H11NO2

>  <LogP> (37)
4.18

>  <LUMO> (37)
-1.428

>  <MOL_ID> (37)
37

>  <Activity> (37)
0.69

$$$$
4-nitrobiphenyl
csChmFindW1207992328
[comments]
 15 16  0     0  0  0  0  0  0  1 V2000
    0.6533    2.3800    0.0000 C   0  0  0  0  0  0  0  0  0  0
    0.0000    1.2133    0.0000 C   0  0  0  0  0  0  0  0  0  0
    0.6533   -0.0000    0.0000 C   0  0  0  0  0  0  0  0  0  0
    2.0533   -0.0000    0.0000 C   0  0  0  0  0  0  0  0  0  0
    2.7533    1.2133    0.0000 C   0  0  0  0  0  0  0  0  0  0
    2.0533    2.3800    0.0000 C   0  0  0  0  0  0  0  0  0  0
    4.1533    1.2133    0.0000 C   0  0  0  0  0  0  0  0  0  0
    4.8533   -0.0000    0.0000 C   0  0  0  0  0  0  0  0  0  0
    6.2533   -0.0000    0.0000 C   0  0  0  0  0  0  0  0  0  0
    6.9533    1.2133    0.0000 C   0  0  0  0  0  0  0  0  0  0
    6.2533    2.3800    0.0000 C   0  0  0  0  0  0  0  0  0  0
    4.8533    2.3800    0.0000 C   0  0  0  0  0  0  0  0  0  0
    8.3533    1.2133    0.0000 N   0  3  0  0  0  0  0  0  0  0
    9.0533   -0.0000    0.0000 O   0  5  0  0  0  0  0  0  0  0
    9.0533    2.3800    0.0000 O   0  0  0  0  0  0  0  0  0  0
  1  2  4  0  0  0  0
  2  3  4  0  0  0  0
  3  4  4  0  0  0  0
  4  5  4  0  0  0  0
  5  6  4  0  0  0  0
  1  6  4  0  0  0  0
  5  7  1  0  0  0  0
  7  8  4  0  0  0  0
  8  9  4  0  0  0  0
  9 10  4  0  0  0  0
 10 11  4  0  0  0  0
 11 12  4  0  0  0  0
  7 12  4  0  0  0  0
 10 13  1  0  0  0  0
 13 14  1  0  0  0  0
 13 15  2  0  0  0  0
M  END
>  <Compound Name> (38)
4-nitrobiphenyl

>  <Formula> (38)
C12H9NO2

>  <LogP> (38)
3.77

>  <LUMO> (38)
-1.228

>  <MOL_ID> (38)
38

>  <Activity> (38)
-0.3

$$$$
6-methoxy-8-nitroquinoline
csChmFindW1207992328
[comments]
 15 16  0     0  0  0  0  0  0  1 V2000
    3.5913    4.8973    0.0000 C   0  0  0  0  0  0  0  0  0  0
    2.3787    4.1977    0.0000 C   0  0  0  0  0  0  0  0  0  0
    2.3787    2.7984    0.0000 C   0  0  0  0  0  0  0  0  0  0
    3.5913    2.0988    0.0000 C   0  0  0  0  0  0  0  0  0  0
    4.8040    2.7984    0.0000 C   0  0  0  0  0  0  0  0  0  0
    4.8040    4.1977    0.0000 C   0  0  0  0  0  0  0  0  0  0
    6.0167    2.0988    0.0000 N   0  0  0  0  0  0  0  0  0  0
    7.2293    2.7984    0.0000 C   0  0  0  0  0  0  0  0  0  0
    7.2293    4.1977    0.0000 C   0  0  0  0  0  0  0  0  0  0
    6.0167    4.8973    0.0000 C   0  0  0  0  0  0  0  0  0  0
    3.5913    0.6996    0.0000 N   0  3  0  0  0  0  0  0  0  0
    2.3787    0.0000    0.0000 O   0  5  0  0  0  0  0  0  0  0
    4.8040    0.0000    0.0000 O   0  0  0  0  0  0  0  0  0  0
    1.1660    4.8973    0.0000 O   0  0  0  0  0  0  0  0  0  0
    0.0000    4.1977    0.0000 C   0  0  0  0  0  0  0  0  0  0
  1  2  4  0  0  0  0
  2  3  4  0  0  0  0
  3  4  4  0  0  0  0
  4  5  4  0  0  0  0
  5  6  4  0  0  0  0
  1  6  4  0  0  0  0
  5  7  4  0  0  0  0
  7  8  4  0  0  0  0
  8  9  4  0  0  0  0
  9 10  4  0  0  0  0
  6 10  4  0  0  0  0
  4 11  1  0  0  0  0
 11 12  1  0  0  0  0
 11 13  2  0  0  0  0
  2 14  1  0  0  0  0
 14 15  1  0  0  0  0
M  END
>  <Compound Name> (39)
6-methoxy-8-nitroquinoline

>  <Formula> (39)
C10H8N2O3

>  <LogP> (39)
1.87

>  <LUMO> (39)
-1.443

>  <MOL_ID> (39)
39

>  <Activity> (39)
-1.21

$$$$
1-nitronaphthalene
csChmFindW1207992328
[comments]
 13 14  0     0  0  0  0  0  0  1 V2000
    1.1660    2.7985    0.0000 C   0  0  0  0  0  0  0  0  0  0
   -0.0000    2.0988    0.0000 C   0  0  0  0  0  0  0  0  0  0
   -0.0000    0.6996    0.0000 C   0  0  0  0  0  0  0  0  0  0
    1.1660    0.0000    0.0000 C   0  0  0  0  0  0  0  0  0  0
    2.3787    0.6996    0.0000 C   0  0  0  0  0  0  0  0  0  0
    2.3787    2.0988    0.0000 C   0  0  0  0  0  0  0  0  0  0
    3.5913    0.0000    0.0000 C   0  0  0  0  0  0  0  0  0  0
    4.8040    0.6996    0.0000 C   0  0  0  0  0  0  0  0  0  0
    4.8040    2.0988    0.0000 C   0  0  0  0  0  0  0  0  0  0
    3.5913    2.7985    0.0000 C   0  0  0  0  0  0  0  0  0  0
    3.5913    4.1977    0.0000 N   0  3  0  0  0  0  0  0  0  0
    4.8040    4.8973    0.0000 O   0  5  0  0  0  0  0  0  0  0
    2.3787    4.8973    0.0000 O   0  0  0  0  0  0  0  0  0  0
  1  2  4  0  0  0  0
  2  3  4  0  0  0  0
  3  4  4  0  0  0  0
  4  5  4  0  0  0  0
  5  6  4  0  0  0  0
  1  6  4  0  0  0  0
  5  7  4  0  0  0  0
  7  8  4  0  0  0  0
  8  9  4  0  0  0  0
  9 10  4  0  0  0  0
  6 10  4  0  0  0  0
 10 11  1  0  0  0  0
 11 12  1  0  0  0  0
 11 13  2  0  0  0  0
M  END
>  <Compound Name> (40)
1-nitronaphthalene

>  <Formula> (40)
C10H7NO2

>  <LogP> (40)
3.19

>  <LUMO> (40)
-1.266

>  <MOL_ID> (40)
40

>  <Activity> (40)
-0.61

$$$$
2-bromo-7-nitrofluorene
csChmFindW1207992328
[comments]
 17 19  0     0  0  0  0  0  0  1 V2000
    2.3800    3.5000    0.0000 C   0  0  0  0  0  0  0  0  0  0
    2.3800    2.1000    0.0000 C   0  0  0  0  0  0  0  0  0  0
    3.5933    1.4000    0.0000 C   0  0  0  0  0  0  0  0  0  0
    4.8067    2.1000    0.0000 C   0  0  0  0  0  0  0  0  0  0
    4.8067    3.5000    0.0000 C   0  0  0  0  0  0  0  0  0  0
    3.5933    4.1533    0.0000 C   0  0  0  0  0  0  0  0  0  0
    6.0200    1.4000    0.0000 C   0  0  0  0  0  0  0  0  0  0
    7.2333    2.1000    0.0000 C   0  0  0  0  0  0  0  0  0  0
    7.2333    3.5000    0.0000 C   0  0  0  0  0  0  0  0  0  0
    8.4467    1.4000    0.0000 C   0  0  0  0  0  0  0  0  0  0
    9.6600    2.1000    0.0000 C   0  0  0  0  0  0  0  0  0  0
    9.6600    3.5000    0.0000 C   0  0  0  0  0  0  0  0  0  0
    8.4467    4.1533    0.0000 C   0  0  0  0  0  0  0  0  0  0
   10.8733    1.4000    0.0000 Br  0  0  0  0  0  0  0  0  0  0
    1.1667    1.4000    0.0000 N   0  3  0  0  0  0  0  0  0  0
   -0.0000    2.1000    0.0000 O   0  5  0  0  0  0  0  0  0  0
    1.1667    0.0000    0.0000 O   0  0  0  0  0  0  0  0  0  0
  1  2  4  0  0  0  0
  2  3  4  0  0  0  0
  3  4  4  0  0  0  0
  4  5  4  0  0  0  0
  5  6  4  0  0  0  0
  1  6  4  0  0  0  0
  4  7  1  0  0  0  0
  7  8  1  0  0  0  0
  8  9  4  0  0  0  0
  5  9  1  0  0  0  0
  8 10  4  0  0  0  0
 10 11  4  0  0  0  0
 11 12  4  0  0  0  0
 12 13  4  0  0  0  0
  9 13  4  0  0  0  0
 11 14  1  0  0  0  0
  2 15  1  0  0  0  0
 15 16  1  0  0  0  0
 15 17  2  0  0  0  0
M  END
>  <Compound Name> (41)
2-bromo-7-nitrofluorene

>  <Formula> (41)
C13H8BrNO2

>  <LogP> (41)
4.83

>  <LUMO> (41)
-1.6

>  <MOL_ID> (41)
41

>  <Activity> (41)
3.06

$$$$
2-methyl-5-nitroindazole
csChmFindW1207992328
[comments]
 13 14  0     0  0  0  0  0  0  1 V2000
    2.3787    2.0988    0.0000 C   0  0  0  0  0  0  0  0  0  0
    2.3787    0.6996    0.0000 C   0  0  0  0  0  0  0  0  0  0
    3.5914    0.0000    0.0000 C   0  0  0  0  0  0  0  0  0  0
    4.8040    0.6996    0.0000 C   0  0  0  0  0  0  0  0  0  0
    4.8040    2.0988    0.0000 C   0  0  0  0  0  0  0  0  0  0
    3.5914    2.7985    0.0000 C   0  0  0  0  0  0  0  0  0  0
    6.1566    0.2798    0.0000 N   0  0  0  0  0  0  0  0  0  0
    6.9495    1.3992    0.0000 N   0  0  0  0  0  0  0  0  0  0
    6.1566    2.5186    0.0000 C   0  0  0  0  0  0  0  0  0  0
    1.1660    2.7985    0.0000 N   0  3  0  0  0  0  0  0  0  0
    1.1660    4.1510    0.0000 O   0  5  0  0  0  0  0  0  0  0
    0.0000    2.0988    0.0000 O   0  0  0  0  0  0  0  0  0  0
    8.3487    1.3992    0.0000 C   0  0  0  0  0  0  0  0  0  0
  1  2  4  0  0  0  0
  2  3  4  0  0  0  0
  3  4  4  0  0  0  0
  4  5  4  0  0  0  0
  5  6  4  0  0  0  0
  1  6  4  0  0  0  0
  4  7  4  0  0  0  0
  7  8  4  0  0  0  0
  8  9  4  0  0  0  0
  5  9  4  0  0  0  0
  1 10  1  0  0  0  0
 10 11  1  0  0  0  0
 10 12  2  0  0  0  0
  8 13  1  0  0  0  0
M  END
>  <Compound Name> (42)
2-methyl-5-nitroindazole

>  <Formula> (42)
C8H8N3O2

>  <LogP> (42)
1.77

>  <LUMO> (42)
-1.19

>  <MOL_ID> (42)
42

>  <Activity> (42)
-1.1

$$$$
2-nitrofluoranthene
csChmFindW1207992328
[comments]
 19 22  0     0  0  0  0  0  0  1 V2000
    2.8772    8.0184    0.0000 C   0  0  0  0  0  0  0  0  0  0
    1.4622    8.0184    0.0000 C   0  0  0  0  0  0  0  0  0  0
    0.7547    6.7449    0.0000 C   0  0  0  0  0  0  0  0  0  0
    1.4622    5.5185    0.0000 C   0  0  0  0  0  0  0  0  0  0
    2.8772    5.5185    0.0000 C   0  0  0  0  0  0  0  0  0  0
    3.5847    6.7449    0.0000 C   0  0  0  0  0  0  0  0  0  0
    1.0377    4.1507    0.0000 C   0  0  0  0  0  0  0  0  0  0
    2.1697    3.3489    0.0000 C   0  0  0  0  0  0  0  0  0  0
    3.3017    4.1507    0.0000 C   0  0  0  0  0  0  0  0  0  0
   -0.0000    3.3960    0.0000 C   0  0  0  0  0  0  0  0  0  0
   -0.0000    2.1697    0.0000 C   0  0  0  0  0  0  0  0  0  0
    1.1792    1.4150    0.0000 C   0  0  0  0  0  0  0  0  0  0
    2.1697    2.0282    0.0000 C   0  0  0  0  0  0  0  0  0  0
    3.3017    1.4150    0.0000 C   0  0  0  0  0  0  0  0  0  0
    4.4337    2.1225    0.0000 C   0  0  0  0  0  0  0  0  0  0
    4.4337    3.3960    0.0000 C   0  0  0  0  0  0  0  0  0  0
    5.6601    1.4150    0.0000 N   0  3  0  0  0  0  0  0  0  0
    5.6601    0.0000    0.0000 O   0  5  0  0  0  0  0  0  0  0
    6.8392    2.1225    0.0000 O   0  0  0  0  0  0  0  0  0  0
  1  2  4  0  0  0  0
  2  3  4  0  0  0  0
  3  4  4  0  0  0  0
  4  5  4  0  0  0  0
  5  6  4  0  0  0  0
  1  6  4  0  0  0  0
  4  7  1  0  0  0  0
  7  8  4  0  0  0  0
  8  9  4  0  0  0  0
  5  9  1  0  0  0  0
  7 10  4  0  0  0  0
 10 11  4  0  0  0  0
 11 12  4  0  0  0  0
 12 13  4  0  0  0  0
  8 13  4  0  0  0  0
 13 14  4  0  0  0  0
 14 15  4  0  0  0  0
 15 16  4  0  0  0  0
  9 16  4  0  0  0  0
 15 17  1  0  0  0  0
 17 18  1  0  0  0  0
 17 19  2  0  0  0  0
M  END
>  <Compound Name> (43)
2-nitrofluoranthene

>  <Formula> (43)
C16H9NO2

>  <LogP> (43)
4.69

>  <LUMO> (43)
-1.57

>  <MOL_ID> (43)
43

>  <Activity> (43)
3.01

$$$$
2-nitro-9,10-dihydrophenanthrene
csChmFindW1207992328
[comments]
 17 19  0     0  0  0  0  0  0  1 V2000
    0.6533    2.4267    0.0000 C   0  0  0  0  0  0  0  0  0  0
    0.0000    1.2133    0.0000 C   0  0  0  0  0  0  0  0  0  0
    0.6533   -0.0000    0.0000 C   0  0  0  0  0  0  0  0  0  0
    2.0533   -0.0000    0.0000 C   0  0  0  0  0  0  0  0  0  0
    2.7533    1.2133    0.0000 C   0  0  0  0  0  0  0  0  0  0
    2.0533    2.4267    0.0000 C   0  0  0  0  0  0  0  0  0  0
    4.1533    1.2133    0.0000 C   0  0  0  0  0  0  0  0  0  0
    4.8533    2.4267    0.0000 C   0  0  0  0  0  0  0  0  0  0
    4.1533    3.5933    0.0000 C   0  0  0  0  0  0  0  0  0  0
    2.7533    3.5933    0.0000 C   0  0  0  0  0  0  0  0  0  0
    4.8533   -0.0000    0.0000 C   0  0  0  0  0  0  0  0  0  0
    6.2533   -0.0000    0.0000 C   0  0  0  0  0  0  0  0  0  0
    7.0000    1.2133    0.0000 C   0  0  0  0  0  0  0  0  0  0
    6.2533    2.4267    0.0000 C   0  0  0  0  0  0  0  0  0  0
    8.4000    1.2133    0.0000 N   0  3  0  0  0  0  0  0  0  0
    9.1000   -0.0000    0.0000 O   0  5  0  0  0  0  0  0  0  0
    9.1000    2.4267    0.0000 O   0  0  0  0  0  0  0  0  0  0
  1  2  4  0  0  0  0
  2  3  4  0  0  0  0
  3  4  4  0  0  0  0
  4  5  4  0  0  0  0
  5  6  4  0  0  0  0
  1  6  4  0  0  0  0
  5  7  1  0  0  0  0
  7  8  4  0  0  0  0
  8  9  1  0  0  0  0
  9 10  1  0  0  0  0
  6 10  1  0  0  0  0
  7 11  4  0  0  0  0
 11 12  4  0  0  0  0
 12 13  4  0  0  0  0
 13 14  4  0  0  0  0
  8 14  4  0  0  0  0
 13 15  1  0  0  0  0
 15 16  1  0  0  0  0
 15 17  2  0  0  0  0
M  END
>  <Compound Name> (44)
2-nitro-9,10-dihydrophenanthrene

>  <Formula> (44)
C14H11NO2

>  <LogP> (44)
4.53

>  <LUMO> (44)
-1.265

>  <MOL_ID> (44)
44

>  <Activity> (44)
1.99

$$$$
1,4-dinitrobenzene
csChmFindW1207992328
[comments]
 12 12  0     0  0  0  0  0  0  1 V2000
    2.0533    1.2133    0.0000 C   0  0  0  0  0  0  0  0  0  0
    2.7533   -0.0000    0.0000 C   0  0  0  0  0  0  0  0  0  0
    4.1533   -0.0000    0.0000 C   0  0  0  0  0  0  0  0  0  0
    4.8533    1.2133    0.0000 C   0  0  0  0  0  0  0  0  0  0
    4.1533    2.3800    0.0000 C   0  0  0  0  0  0  0  0  0  0
    2.7533    2.3800    0.0000 C   0  0  0  0  0  0  0  0  0  0
    6.2533    1.2133    0.0000 N   0  3  0  0  0  0  0  0  0  0
    6.9533   -0.0000    0.0000 O   0  5  0  0  0  0  0  0  0  0
    6.9533    2.3800    0.0000 O   0  0  0  0  0  0  0  0  0  0
    0.6533    1.2133    0.0000 N   0  3  0  0  0  0  0  0  0  0
    0.0000    2.3800    0.0000 O   0  5  0  0  0  0  0  0  0  0
    0.0000   -0.0000    0.0000 O   0  0  0  0  0  0  0  0  0  0
  1  2  4  0  0  0  0
  2  3  4  0  0  0  0
  3  4  4  0  0  0  0
  4  5  4  0  0  0  0
  5  6  4  0  0  0  0
  1  6  4  0  0  0  0
  4  7  1  0  0  0  0
  7  8  1  0  0  0  0
  7  9  2  0  0  0  0
  1 10  1  0  0  0  0
 10 11  1  0  0  0  0
 10 12  2  0  0  0  0
M  END
>  <Compound Name> (45)
1,4-dinitrobenzene

>  <Formula> (45)
C6H4N2O4

>  <LogP> (45)
1.46

>  <LUMO> (45)
-2.227

>  <MOL_ID> (45)
45

>  <Activity> (45)
0.15

$$$$
1-nitro-7,8,9,10-tetrahydrobenzo[a]pyrene
csChmFindW1207992328
[comments]
 23 27  0     0  0  0  0  0  0  1 V2000
   -0.0000    2.0988    0.0000 C   0  0  0  0  0  0  0  0  0  0
   -0.0000    0.6996    0.0000 C   0  0  0  0  0  0  0  0  0  0
    1.1660   -0.0000    0.0000 C   0  0  0  0  0  0  0  0  0  0
    2.3787    0.6996    0.0000 C   0  0  0  0  0  0  0  0  0  0
    2.3787    2.0988    0.0000 C   0  0  0  0  0  0  0  0  0  0
    1.1660    2.7984    0.0000 C   0  0  0  0  0  0  0  0  0  0
    3.5913   -0.0000    0.0000 C   0  0  0  0  0  0  0  0  0  0
    4.8040    0.6996    0.0000 C   0  0  0  0  0  0  0  0  0  0
    4.8040    2.0988    0.0000 C   0  0  0  0  0  0  0  0  0  0
    3.5913    2.7984    0.0000 C   0  0  0  0  0  0  0  0  0  0
    6.0167   -0.0000    0.0000 C   0  0  0  0  0  0  0  0  0  0
    7.2293    0.6996    0.0000 C   0  0  0  0  0  0  0  0  0  0
    7.2293    2.0988    0.0000 C   0  0  0  0  0  0  0  0  0  0
    6.0167    2.7984    0.0000 C   0  0  0  0  0  0  0  0  0  0
    6.0167    4.1977    0.0000 C   0  0  0  0  0  0  0  0  0  0
    4.8040    4.8973    0.0000 C   0  0  0  0  0  0  0  0  0  0
    3.5913    4.1977    0.0000 C   0  0  0  0  0  0  0  0  0  0
    8.4420    2.7984    0.0000 C   0  0  0  0  0  0  0  0  0  0
    8.4420    4.1977    0.0000 C   0  0  0  0  0  0  0  0  0  0
    7.2293    4.8973    0.0000 C   0  0  0  0  0  0  0  0  0  0
    7.2293    6.2965    0.0000 N   0  3  0  0  0  0  0  0  0  0
    8.4420    6.9028    0.0000 O   0  5  0  0  0  0  0  0  0  0
    6.0167    6.9028    0.0000 O   0  0  0  0  0  0  0  0  0  0
  1  2  1  0  0  0  0
  2  3  1  0  0  0  0
  3  4  1  0  0  0  0
  4  5  4  0  0  0  0
  5  6  1  0  0  0  0
  1  6  1  0  0  0  0
  4  7  4  0  0  0  0
  7  8  4  0  0  0  0
  8  9  4  0  0  0  0
  9 10  4  0  0  0  0
  5 10  4  0  0  0  0
  8 11  4  0  0  0  0
 11 12  4  0  0  0  0
 12 13  4  0  0  0  0
 13 14  4  0  0  0  0
  9 14  4  0  0  0  0
 14 15  4  0  0  0  0
 15 16  4  0  0  0  0
 16 17  4  0  0  0  0
 10 17  4  0  0  0  0
 13 18  4  0  0  0  0
 18 19  4  0  0  0  0
 19 20  4  0  0  0  0
 15 20  4  0  0  0  0
 20 21  1  0  0  0  0
 21 22  1  0  0  0  0
 21 23  2  0  0  0  0
M  END
>  <Compound Name> (46)
1-nitro-7,8,9,10-tetrahydrobenzo[a]pyrene

>  <Formula> (46)
C20H15NO2

>  <LogP> (46)
6.57

>  <LUMO> (46)
-1.804

>  <MOL_ID> (46)
46

>  <Activity> (46)
0.9

$$$$
2,7-dinitro-4,5,9,10-tetrahydropyrene
csChmFindW1207992328
[comments]
 22 25  0     0  0  0  0  0  0  1 V2000
    4.7574    3.4981    0.0000 C   0  0  0  0  0  0  0  0  0  0
    4.7574    2.0988    0.0000 C   0  0  0  0  0  0  0  0  0  0
    5.9700    1.3992    0.0000 C   0  0  0  0  0  0  0  0  0  0
    7.1827    2.0988    0.0000 C   0  0  0  0  0  0  0  0  0  0
    7.1827    3.4981    0.0000 C   0  0  0  0  0  0  0  0  0  0
    5.9700    4.1977    0.0000 C   0  0  0  0  0  0  0  0  0  0
    3.5447    4.1977    0.0000 C   0  0  0  0  0  0  0  0  0  0
    2.3320    3.4981    0.0000 C   0  0  0  0  0  0  0  0  0  0
    2.3320    2.0988    0.0000 C   0  0  0  0  0  0  0  0  0  0
    3.5447    1.3992    0.0000 C   0  0  0  0  0  0  0  0  0  0
    5.9700    5.5969    0.0000 C   0  0  0  0  0  0  0  0  0  0
    4.7574    6.2965    0.0000 C   0  0  0  0  0  0  0  0  0  0
    3.5447    5.5969    0.0000 C   0  0  0  0  0  0  0  0  0  0
    8.3954    4.1977    0.0000 C   0  0  0  0  0  0  0  0  0  0
    8.3954    5.5969    0.0000 C   0  0  0  0  0  0  0  0  0  0
    7.1827    6.2965    0.0000 C   0  0  0  0  0  0  0  0  0  0
    9.6080    6.2965    0.0000 N   0  3  0  0  0  0  0  0  0  0
   10.8207    5.5969    0.0000 O   0  5  0  0  0  0  0  0  0  0
    9.6080    7.6958    0.0000 O   0  0  0  0  0  0  0  0  0  0
    1.1194    1.3992    0.0000 N   0  3  0  0  0  0  0  0  0  0
   -0.0000    2.0988    0.0000 O   0  5  0  0  0  0  0  0  0  0
    1.1194   -0.0000    0.0000 O   0  0  0  0  0  0  0  0  0  0
  1  2  4  0  0  0  0
  2  3  1  0  0  0  0
  3  4  1  0  0  0  0
  4  5  1  0  0  0  0
  5  6  4  0  0  0  0
  1  6  1  0  0  0  0
  1  7  4  0  0  0  0
  7  8  4  0  0  0  0
  8  9  4  0  0  0  0
  9 10  4  0  0  0  0
  2 10  4  0  0  0  0
  6 11  4  0  0  0  0
 11 12  1  0  0  0  0
 12 13  1  0  0  0  0
  7 13  1  0  0  0  0
  5 14  4  0  0  0  0
 14 15  4  0  0  0  0
 15 16  4  0  0  0  0
 11 16  4  0  0  0  0
 15 17  1  0  0  0  0
 17 18  1  0  0  0  0
 17 19  2  0  0  0  0
  9 20  1  0  0  0  0
 20 21  1  0  0  0  0
 20 22  2  0  0  0  0
M  END
>  <Compound Name> (47)
2,7-dinitro-4,5,9,10-tetrahydropyrene

>  <Formula> (47)
C16H12N2O4

>  <LogP> (47)
5.02

>  <LUMO> (47)
-1.88

>  <MOL_ID> (47)
47

>  <Activity> (47)
3.5

$$$$
2-nitroanthracene
csChmFindW1207992328
[comments]
 17 19  0     0  0  0  0  0  0  1 V2000
   -0.0000    2.0988    0.0000 C   0  0  0  0  0  0  0  0  0  0
   -0.0000    0.6996    0.0000 C   0  0  0  0  0  0  0  0  0  0
    1.1660   -0.0000    0.0000 C   0  0  0  0  0  0  0  0  0  0
    2.3787    0.6996    0.0000 C   0  0  0  0  0  0  0  0  0  0
    2.3787    2.0988    0.0000 C   0  0  0  0  0  0  0  0  0  0
    1.1660    2.7984    0.0000 C   0  0  0  0  0  0  0  0  0  0
    3.5913   -0.0000    0.0000 C   0  0  0  0  0  0  0  0  0  0
    4.8040    0.6996    0.0000 C   0  0  0  0  0  0  0  0  0  0
    4.8040    2.0988    0.0000 C   0  0  0  0  0  0  0  0  0  0
    3.5913    2.7984    0.0000 C   0  0  0  0  0  0  0  0  0  0
    6.0166   -0.0000    0.0000 C   0  0  0  0  0  0  0  0  0  0
    7.2293    0.6996    0.0000 C   0  0  0  0  0  0  0  0  0  0
    7.2293    2.0988    0.0000 C   0  0  0  0  0  0  0  0  0  0
    6.0166    2.7984    0.0000 C   0  0  0  0  0  0  0  0  0  0
    8.4420    2.7984    0.0000 N   0  3  0  0  0  0  0  0  0  0
    9.6546    2.0988    0.0000 O   0  5  0  0  0  0  0  0  0  0
    8.4420    4.1977    0.0000 O   0  0  0  0  0  0  0  0  0  0
  1  2  4  0  0  0  0
  2  3  4  0  0  0  0
  3  4  4  0  0  0  0
  4  5  4  0  0  0  0
  5  6  4  0  0  0  0
  1  6  4  0  0  0  0
  4  7  4  0  0  0  0
  7  8  4  0  0  0  0
  8  9  4  0  0  0  0
  9 10  4  0  0  0  0
  5 10  4  0  0  0  0
  8 11  4  0  0  0  0
 11 12  4  0  0  0  0
 12 13  4  0  0  0  0
 13 14  4  0  0  0  0
  9 14  4  0  0  0  0
 13 15  1  0  0  0  0
 15 16  1  0  0  0  0
 15 17  2  0  0  0  0
M  END
>  <Compound Name> (48)
2-nitroanthracene

>  <Formula> (48)
C14H9NO2

>  <LogP> (48)
4.23

>  <LUMO> (48)
-1.616

>  <MOL_ID> (48)
48

>  <Activity> (48)
2.95

$$$$
2,8-dinitrophenazine
csChmFindW1207992328
[comments]
 20 22  0     0  0  0  0  0  0  1 V2000
    3.5447    2.7984    0.0000 C   0  0  0  0  0  0  0  0  0  0
    2.3320    2.0988    0.0000 C   0  0  0  0  0  0  0  0  0  0
    2.3320    0.6996    0.0000 C   0  0  0  0  0  0  0  0  0  0
    3.5447    0.0000    0.0000 C   0  0  0  0  0  0  0  0  0  0
    4.7574    0.6996    0.0000 C   0  0  0  0  0  0  0  0  0  0
    4.7574    2.0988    0.0000 C   0  0  0  0  0  0  0  0  0  0
    5.9700    0.0000    0.0000 N   0  0  0  0  0  0  0  0  0  0
    7.1827    0.6996    0.0000 C   0  0  0  0  0  0  0  0  0  0
    7.1827    2.0988    0.0000 C   0  0  0  0  0  0  0  0  0  0
    5.9700    2.7984    0.0000 N   0  0  0  0  0  0  0  0  0  0
    8.3953    0.0000    0.0000 C   0  0  0  0  0  0  0  0  0  0
    9.6080    0.6996    0.0000 C   0  0  0  0  0  0  0  0  0  0
    9.6080    2.0988    0.0000 C   0  0  0  0  0  0  0  0  0  0
    8.3953    2.7984    0.0000 C   0  0  0  0  0  0  0  0  0  0
   10.8207    2.7984    0.0000 N   0  3  0  0  0  0  0  0  0  0
   12.0333    2.0988    0.0000 O   0  5  0  0  0  0  0  0  0  0
   10.8207    4.1977    0.0000 O   0  0  0  0  0  0  0  0  0  0
    1.1194    2.7984    0.0000 N   0  3  0  0  0  0  0  0  0  0
    1.1194    4.1977    0.0000 O   0  5  0  0  0  0  0  0  0  0
    0.0000    2.0988    0.0000 O   0  0  0  0  0  0  0  0  0  0
  1  2  4  0  0  0  0
  2  3  4  0  0  0  0
  3  4  4  0  0  0  0
  4  5  4  0  0  0  0
  5  6  4  0  0  0  0
  1  6  4  0  0  0  0
  5  7  4  0  0  0  0
  7  8  4  0  0  0  0
  8  9  4  0  0  0  0
  9 10  4  0  0  0  0
  6 10  4  0  0  0  0
  8 11  4  0  0  0  0
 11 12  4  0  0  0  0
 12 13  4  0  0  0  0
 13 14  4  0  0  0  0
  9 14  4  0  0  0  0
 13 15  1  0  0  0  0
 15 16  1  0  0  0  0
 15 17  2  0  0  0  0
  2 18  1  0  0  0  0
 18 19  1  0  0  0  0
 18 20  2  0  0  0  0
M  END
>  <Compound Name> (49)
2,8-dinitrophenazine

>  <Formula> (49)
C12H6N4O4

>  <LogP> (49)
2.29

>  <LUMO> (49)
-2.808

>  <MOL_ID> (49)
49

>  <Activity> (49)
2.75

$$$$
1,5-dinitronaphtalene
csChmFindW1207992328
[comments]
 16 17  0     0  0  0  0  0  0  1 V2000
    2.3787    4.1977    0.0000 C   0  0  0  0  0  0  0  0  0  0
    2.3787    2.7985    0.0000 C   0  0  0  0  0  0  0  0  0  0
    3.5914    2.0989    0.0000 C   0  0  0  0  0  0  0  0  0  0
    4.8040    2.7985    0.0000 C   0  0  0  0  0  0  0  0  0  0
    4.8040    4.1977    0.0000 C   0  0  0  0  0  0  0  0  0  0
    3.5914    4.8973    0.0000 C   0  0  0  0  0  0  0  0  0  0
    1.1660    4.8973    0.0000 C   0  0  0  0  0  0  0  0  0  0
   -0.0000    4.1977    0.0000 C   0  0  0  0  0  0  0  0  0  0
   -0.0000    2.7985    0.0000 C   0  0  0  0  0  0  0  0  0  0
    1.1660    2.0989    0.0000 C   0  0  0  0  0  0  0  0  0  0
    3.5914    6.2965    0.0000 N   0  3  0  0  0  0  0  0  0  0
    4.8040    6.9962    0.0000 O   0  5  0  0  0  0  0  0  0  0
    2.3787    6.9962    0.0000 O   0  0  0  0  0  0  0  0  0  0
    1.1660    0.6996    0.0000 N   0  3  0  0  0  0  0  0  0  0
   -0.0000    0.0000    0.0000 O   0  5  0  0  0  0  0  0  0  0
    2.3787    0.0000    0.0000 O   0  0  0  0  0  0  0  0  0  0
  1  2  4  0  0  0  0
  2  3  4  0  0  0  0
  3  4  4  0  0  0  0
  4  5  4  0  0  0  0
  5  6  4  0  0  0  0
  1  6  4  0  0  0  0
  1  7  4  0  0  0  0
  7  8  4  0  0  0  0
  8  9  4  0  0  0  0
  9 10  4  0  0  0  0
  2 10  4  0  0  0  0
  6 11  1  0  0  0  0
 11 12  1  0  0  0  0
 11 13  2  0  0  0  0
 10 14  1  0  0  0  0
 14 15  1  0  0  0  0
 14 16  2  0  0  0  0
M  END
>  <Compound Name> (50)
1,5-dinitronaphtalene

>  <Formula> (50)
C10H6N2O4

>  <LogP> (50)
2.58

>  <LUMO> (50)
-1.932

>  <MOL_ID> (50)
50

>  <Activity> (50)
0.52

$$$$
1,6-dinitro-9,10,11,12-tetrahydrobenzo[e]pyrene
csChmFindW1207992328
[comments]
 26 30  0     0  0  0  0  0  0  1 V2000
    2.3800    7.0000    0.0000 C   0  0  0  0  0  0  0  0  0  0
    1.1667    6.3000    0.0000 C   0  0  0  0  0  0  0  0  0  0
    1.1667    4.9000    0.0000 C   0  0  0  0  0  0  0  0  0  0
    2.3800    4.2000    0.0000 C   0  0  0  0  0  0  0  0  0  0
    3.5933    4.9000    0.0000 C   0  0  0  0  0  0  0  0  0  0
    3.5933    6.3000    0.0000 C   0  0  0  0  0  0  0  0  0  0
    2.3800    8.4000    0.0000 C   0  0  0  0  0  0  0  0  0  0
    1.1667    9.0533    0.0000 C   0  0  0  0  0  0  0  0  0  0
    0.0000    8.4000    0.0000 C   0  0  0  0  0  0  0  0  0  0
    0.0000    7.0000    0.0000 C   0  0  0  0  0  0  0  0  0  0
    4.8066    4.2000    0.0000 C   0  0  0  0  0  0  0  0  0  0
    6.0200    4.9000    0.0000 C   0  0  0  0  0  0  0  0  0  0
    6.0200    6.3000    0.0000 C   0  0  0  0  0  0  0  0  0  0
    4.8066    7.0000    0.0000 C   0  0  0  0  0  0  0  0  0  0
    0.0000    4.2000    0.0000 C   0  0  0  0  0  0  0  0  0  0
    0.0000    2.8000    0.0000 C   0  0  0  0  0  0  0  0  0  0
    1.1667    2.1000    0.0000 C   0  0  0  0  0  0  0  0  0  0
    2.3800    2.8000    0.0000 C   0  0  0  0  0  0  0  0  0  0
    3.5933    2.1000    0.0000 C   0  0  0  0  0  0  0  0  0  0
    4.8066    2.8000    0.0000 C   0  0  0  0  0  0  0  0  0  0
    4.8066    8.4000    0.0000 N   0  3  0  0  0  0  0  0  0  0
    6.0200    9.0533    0.0000 O   0  5  0  0  0  0  0  0  0  0
    3.5933    9.0533    0.0000 O   0  0  0  0  0  0  0  0  0  0
    1.1667    0.7000    0.0000 N   0  3  0  0  0  0  0  0  0  0
    0.0000    0.0000    0.0000 O   0  5  0  0  0  0  0  0  0  0
    2.3800    0.0000    0.0000 O   0  0  0  0  0  0  0  0  0  0
  1  2  4  0  0  0  0
  2  3  4  0  0  0  0
  3  4  4  0  0  0  0
  4  5  4  0  0  0  0
  5  6  4  0  0  0  0
  1  6  4  0  0  0  0
  1  7  1  0  0  0  0
  7  8  1  0  0  0  0
  8  9  1  0  0  0  0
  9 10  1  0  0  0  0
  2 10  1  0  0  0  0
  5 11  4  0  0  0  0
 11 12  4  0  0  0  0
 12 13  4  0  0  0  0
 13 14  4  0  0  0  0
  6 14  4  0  0  0  0
  3 15  4  0  0  0  0
 15 16  4  0  0  0  0
 16 17  4  0  0  0  0
 17 18  4  0  0  0  0
  4 18  4  0  0  0  0
 18 19  4  0  0  0  0
 19 20  4  0  0  0  0
 11 20  4  0  0  0  0
 14 21  1  0  0  0  0
 21 22  1  0  0  0  0
 21 23  2  0  0  0  0
 17 24  1  0  0  0  0
 24 25  1  0  0  0  0
 24 26  2  0  0  0  0
M  END
>  <Compound Name> (51)
1,6-dinitro-9,10,11,12-tetrahydrobenzo[e]pyrene

>  <Formula> (51)
C20H14N2O4

>  <LogP> (51)
6.01

>  <LUMO> (51)
-2.184

>  <MOL_ID> (51)
51

>  <Activity> (51)
2.41

$$$$
1,3-dinitro-9,10,11,12-tetrahydrobenzo[e]pyrene
csChmFindW1207992328
[comments]
 26 30  0     0  0  0  0  0  0  1 V2000
    2.3800    4.9000    0.0000 C   0  0  0  0  0  0  0  0  0  0
    1.1667    4.2000    0.0000 C   0  0  0  0  0  0  0  0  0  0
    1.1667    2.8000    0.0000 C   0  0  0  0  0  0  0  0  0  0
    2.3800    2.1000    0.0000 C   0  0  0  0  0  0  0  0  0  0
    3.5467    2.8000    0.0000 C   0  0  0  0  0  0  0  0  0  0
    3.5467    4.2000    0.0000 C   0  0  0  0  0  0  0  0  0  0
    2.3800    6.3000    0.0000 C   0  0  0  0  0  0  0  0  0  0
    1.1667    6.9067    0.0000 C   0  0  0  0  0  0  0  0  0  0
    0.0000    6.3000    0.0000 C   0  0  0  0  0  0  0  0  0  0
    0.0000    4.9000    0.0000 C   0  0  0  0  0  0  0  0  0  0
    4.8067    2.1000    0.0000 C   0  0  0  0  0  0  0  0  0  0
    6.0200    2.8000    0.0000 C   0  0  0  0  0  0  0  0  0  0
    6.0200    4.2000    0.0000 C   0  0  0  0  0  0  0  0  0  0
    4.8067    4.9000    0.0000 C   0  0  0  0  0  0  0  0  0  0
    0.0000    2.1000    0.0000 C   0  0  0  0  0  0  0  0  0  0
    0.0000    0.7000    0.0000 C   0  0  0  0  0  0  0  0  0  0
    1.1667    0.0000    0.0000 C   0  0  0  0  0  0  0  0  0  0
    2.3800    0.7000    0.0000 C   0  0  0  0  0  0  0  0  0  0
    3.5467    0.0000    0.0000 C   0  0  0  0  0  0  0  0  0  0
    4.8067    0.7000    0.0000 C   0  0  0  0  0  0  0  0  0  0
    4.8067    6.3000    0.0000 N   0  3  0  0  0  0  0  0  0  0
    6.0200    6.9067    0.0000 O   0  5  0  0  0  0  0  0  0  0
    3.5467    6.9067    0.0000 O   0  0  0  0  0  0  0  0  0  0
    7.0000    1.8200    0.0000 N   0  3  0  0  0  0  0  0  0  0
    6.6267    0.4667    0.0000 O   0  5  0  0  0  0  0  0  0  0
    8.3067    2.1467    0.0000 O   0  0  0  0  0  0  0  0  0  0
  1  2  4  0  0  0  0
  2  3  4  0  0  0  0
  3  4  4  0  0  0  0
  4  5  4  0  0  0  0
  5  6  4  0  0  0  0
  1  6  4  0  0  0  0
  1  7  1  0  0  0  0
  7  8  1  0  0  0  0
  8  9  1  0  0  0  0
  9 10  1  0  0  0  0
  2 10  1  0  0  0  0
  5 11  4  0  0  0  0
 11 12  4  0  0  0  0
 12 13  4  0  0  0  0
 13 14  4  0  0  0  0
  6 14  4  0  0  0  0
  3 15  4  0  0  0  0
 15 16  4  0  0  0  0
 16 17  4  0  0  0  0
 17 18  4  0  0  0  0
  4 18  4  0  0  0  0
 18 19  4  0  0  0  0
 19 20  4  0  0  0  0
 11 20  4  0  0  0  0
 14 21  1  0  0  0  0
 21 22  1  0  0  0  0
 21 23  2  0  0  0  0
 12 24  1  0  0  0  0
 24 25  1  0  0  0  0
 24 26  2  0  0  0  0
M  END
>  <Compound Name> (52)
1,3-dinitro-9,10,11,12-tetrahydrobenzo[e]pyrene

>  <Formula> (52)
C20H14N2O4

>  <LogP> (52)
6.01

>  <LUMO> (52)
-2.189

>  <MOL_ID> (52)
52

>  <Activity> (52)
2.41

$$$$
2,7-dinitrofluorene
csChmFindW1207992328
[comments]
 19 21  0     0  0  0  0  0  0  1 V2000
    2.3800    3.5000    0.0000 C   0  0  0  0  0  0  0  0  0  0
    2.3800    2.1000    0.0000 C   0  0  0  0  0  0  0  0  0  0
    3.5933    1.4000    0.0000 C   0  0  0  0  0  0  0  0  0  0
    4.8067    2.1000    0.0000 C   0  0  0  0  0  0  0  0  0  0
    4.8067    3.5000    0.0000 C   0  0  0  0  0  0  0  0  0  0
    3.5933    4.1533    0.0000 C   0  0  0  0  0  0  0  0  0  0
    6.0200    1.4000    0.0000 C   0  0  0  0  0  0  0  0  0  0
    7.2333    2.1000    0.0000 C   0  0  0  0  0  0  0  0  0  0
    7.2333    3.5000    0.0000 C   0  0  0  0  0  0  0  0  0  0
    8.4467    1.4000    0.0000 C   0  0  0  0  0  0  0  0  0  0
    9.6600    2.1000    0.0000 C   0  0  0  0  0  0  0  0  0  0
    9.6600    3.5000    0.0000 C   0  0  0  0  0  0  0  0  0  0
    8.4467    4.1533    0.0000 C   0  0  0  0  0  0  0  0  0  0
   10.8734    1.4000    0.0000 N   0  3  0  0  0  0  0  0  0  0
   10.8734   -0.0000    0.0000 O   0  5  0  0  0  0  0  0  0  0
   12.0867    2.1000    0.0000 O   0  0  0  0  0  0  0  0  0  0
    1.1667    1.4000    0.0000 N   0  3  0  0  0  0  0  0  0  0
    0.0000    2.1000    0.0000 O   0  5  0  0  0  0  0  0  0  0
    1.1667   -0.0000    0.0000 O   0  0  0  0  0  0  0  0  0  0
  1  2  4  0  0  0  0
  2  3  4  0  0  0  0
  3  4  4  0  0  0  0
  4  5  4  0  0  0  0
  5  6  4  0  0  0  0
  1  6  4  0  0  0  0
  4  7  1  0  0  0  0
  7  8  1  0  0  0  0
  8  9  4  0  0  0  0
  5  9  1  0  0  0  0
  8 10  4  0  0  0  0
 10 11  4  0  0  0  0
 11 12  4  0  0  0  0
 12 13  4  0  0  0  0
  9 13  4  0  0  0  0
 11 14  1  0  0  0  0
 14 15  1  0  0  0  0
 14 16  2  0  0  0  0
  2 17  1  0  0  0  0
 17 18  1  0  0  0  0
 17 19  2  0  0  0  0
M  END
>  <Compound Name> (53)
2,7-dinitrofluorene

>  <Formula> (53)
C13H8N2O4

>  <LogP> (53)
3.35

>  <LUMO> (53)
-2.155

>  <MOL_ID> (53)
53

>  <Activity> (53)
3.22

$$$$
7-nitro-2,3-dichlorodibenzo-1,4-dioxin
csChmFindW1207992328
[comments]
 19 21  0     0  0  0  0  0  0  1 V2000
    2.3800    3.5000    0.0000 C   0  0  0  0  0  0  0  0  0  0
    2.3800    2.1000    0.0000 C   0  0  0  0  0  0  0  0  0  0
    3.5933    1.4000    0.0000 C   0  0  0  0  0  0  0  0  0  0
    4.8067    2.1000    0.0000 C   0  0  0  0  0  0  0  0  0  0
    4.8067    3.5000    0.0000 C   0  0  0  0  0  0  0  0  0  0
    3.5933    4.1533    0.0000 C   0  0  0  0  0  0  0  0  0  0
    6.0200    1.4000    0.0000 O   0  0  0  0  0  0  0  0  0  0
    7.2333    2.1000    0.0000 C   0  0  0  0  0  0  0  0  0  0
    7.2333    3.5000    0.0000 C   0  0  0  0  0  0  0  0  0  0
    6.0200    4.1533    0.0000 O   0  0  0  0  0  0  0  0  0  0
    8.4467    1.4000    0.0000 C   0  0  0  0  0  0  0  0  0  0
    9.6600    2.1000    0.0000 C   0  0  0  0  0  0  0  0  0  0
    9.6600    3.5000    0.0000 C   0  0  0  0  0  0  0  0  0  0
    8.4467    4.1533    0.0000 C   0  0  0  0  0  0  0  0  0  0
   10.8733    4.1533    0.0000 Cl  0  0  0  0  0  0  0  0  0  0
   10.8733    1.4000    0.0000 Cl  0  0  0  0  0  0  0  0  0  0
    1.1667    1.4000    0.0000 N   0  3  0  0  0  0  0  0  0  0
   -0.0000    2.1000    0.0000 O   0  5  0  0  0  0  0  0  0  0
    1.1667    0.0000    0.0000 O   0  0  0  0  0  0  0  0  0  0
  1  2  4  0  0  0  0
  2  3  4  0  0  0  0
  3  4  4  0  0  0  0
  4  5  4  0  0  0  0
  5  6  4  0  0  0  0
  1  6  4  0  0  0  0
  4  7  1  0  0  0  0
  7  8  1  0  0  0  0
  8  9  4  0  0  0  0
  9 10  1  0  0  0  0
  5 10  1  0  0  0  0
  8 11  4  0  0  0  0
 11 12  4  0  0  0  0
 12 13  4  0  0  0  0
 13 14  4  0  0  0  0
  9 14  4  0  0  0  0
 13 15  1  0  0  0  0
 12 16  1  0  0  0  0
  2 17  1  0  0  0  0
 17 18  1  0  0  0  0
 17 19  2  0  0  0  0
M  END
>  <Compound Name> (54)
7-nitro-2,3-dichlorodibenzo-1,4-dioxin

>  <Formula> (54)
C12H5Cl2NO4

>  <LogP> (54)
6.24

>  <LUMO> (54)
-1.464

>  <MOL_ID> (54)
54

>  <Activity> (54)
1.73

$$$$
1-methyl-2-nitronaphthalene
csChmFindW1207992328
[comments]
 14 15  0     0  0  0  0  0  0  1 V2000
    2.3787    2.0988    0.0000 C   0  0  0  0  0  0  0  0  0  0
    2.3787    0.6996    0.0000 C   0  0  0  0  0  0  0  0  0  0
    3.5914   -0.0000    0.0000 C   0  0  0  0  0  0  0  0  0  0
    4.8040    0.6996    0.0000 C   0  0  0  0  0  0  0  0  0  0
    4.8040    2.0988    0.0000 C   0  0  0  0  0  0  0  0  0  0
    3.5914    2.7985    0.0000 C   0  0  0  0  0  0  0  0  0  0
    1.1660    2.7985    0.0000 C   0  0  0  0  0  0  0  0  0  0
   -0.0000    2.0988    0.0000 C   0  0  0  0  0  0  0  0  0  0
   -0.0000    0.6996    0.0000 C   0  0  0  0  0  0  0  0  0  0
    1.1660   -0.0000    0.0000 C   0  0  0  0  0  0  0  0  0  0
    3.5914    4.1977    0.0000 C   0  0  0  0  0  0  0  0  0  0
    6.0167    2.7985    0.0000 N   0  3  0  0  0  0  0  0  0  0
    7.2294    2.0988    0.0000 O   0  5  0  0  0  0  0  0  0  0
    6.0167    4.1977    0.0000 O   0  0  0  0  0  0  0  0  0  0
  1  2  4  0  0  0  0
  2  3  4  0  0  0  0
  3  4  4  0  0  0  0
  4  5  4  0  0  0  0
  5  6  4  0  0  0  0
  1  6  4  0  0  0  0
  1  7  4  0  0  0  0
  7  8  4  0  0  0  0
  8  9  4  0  0  0  0
  9 10  4  0  0  0  0
  2 10  4  0  0  0  0
  6 11  1  0  0  0  0
  5 12  1  0  0  0  0
 12 13  1  0  0  0  0
 12 14  2  0  0  0  0
M  END
>  <Compound Name> (55)
1-methyl-2-nitronaphthalene

>  <Formula> (55)
C11H9NO2

>  <LogP> (55)
3.43

>  <LUMO> (55)
-1.177

>  <MOL_ID> (55)
55

>  <Activity> (55)
-0.7

$$$$
2-nitrophenazine
csChmFindW1207992328
[comments]
 17 19  0     0  0  0  0  0  0  1 V2000
   -0.0000    2.0988    0.0000 C   0  0  0  0  0  0  0  0  0  0
   -0.0000    0.6996    0.0000 C   0  0  0  0  0  0  0  0  0  0
    1.1660    0.0000    0.0000 C   0  0  0  0  0  0  0  0  0  0
    2.3787    0.6996    0.0000 C   0  0  0  0  0  0  0  0  0  0
    2.3787    2.0988    0.0000 C   0  0  0  0  0  0  0  0  0  0
    1.1660    2.7984    0.0000 C   0  0  0  0  0  0  0  0  0  0
    3.5913    0.0000    0.0000 N   0  0  0  0  0  0  0  0  0  0
    4.8040    0.6996    0.0000 C   0  0  0  0  0  0  0  0  0  0
    4.8040    2.0988    0.0000 C   0  0  0  0  0  0  0  0  0  0
    3.5913    2.7984    0.0000 N   0  0  0  0  0  0  0  0  0  0
    6.0167    0.0000    0.0000 C   0  0  0  0  0  0  0  0  0  0
    7.2293    0.6996    0.0000 C   0  0  0  0  0  0  0  0  0  0
    7.2293    2.0988    0.0000 C   0  0  0  0  0  0  0  0  0  0
    6.0167    2.7984    0.0000 C   0  0  0  0  0  0  0  0  0  0
    8.4420    2.7984    0.0000 N   0  3  0  0  0  0  0  0  0  0
    9.6546    2.0988    0.0000 O   0  5  0  0  0  0  0  0  0  0
    8.4420    4.1977    0.0000 O   0  0  0  0  0  0  0  0  0  0
  1  2  4  0  0  0  0
  2  3  4  0  0  0  0
  3  4  4  0  0  0  0
  4  5  4  0  0  0  0
  5  6  4  0  0  0  0
  1  6  4  0  0  0  0
  4  7  4  0  0  0  0
  7  8  4  0  0  0  0
  8  9  4  0  0  0  0
  9 10  4  0  0  0  0
  5 10  4  0  0  0  0
  8 11  4  0  0  0  0
 11 12  4  0  0  0  0
 12 13  4  0  0  0  0
 13 14  4  0  0  0  0
  9 14  4  0  0  0  0
 13 15  1  0  0  0  0
 15 16  1  0  0  0  0
 15 17  2  0  0  0  0
M  END
>  <Compound Name> (56)
2-nitrophenazine

>  <Formula> (56)
C12H7N3O2

>  <LogP> (56)
2.52

>  <LUMO> (56)
-2.234

>  <MOL_ID> (56)
56

>  <Activity> (56)
2.06

$$$$
2,4,4'-trinitrobiphenyl
csChmFindW1207992328
[comments]
 21 22  0     0  0  0  0  0  0  1 V2000
    2.7518    2.4253    0.0000 C   0  0  0  0  0  0  0  0  0  0
    2.0522    1.2127    0.0000 C   0  0  0  0  0  0  0  0  0  0
    2.7518    0.0000    0.0000 C   0  0  0  0  0  0  0  0  0  0
    4.1510    0.0000    0.0000 C   0  0  0  0  0  0  0  0  0  0
    4.8507    1.2127    0.0000 C   0  0  0  0  0  0  0  0  0  0
    4.1510    2.4253    0.0000 C   0  0  0  0  0  0  0  0  0  0
    6.2499    1.2127    0.0000 C   0  0  0  0  0  0  0  0  0  0
    6.9495    0.0000    0.0000 C   0  0  0  0  0  0  0  0  0  0
    8.3487    0.0000    0.0000 C   0  0  0  0  0  0  0  0  0  0
    9.0484    1.2127    0.0000 C   0  0  0  0  0  0  0  0  0  0
    8.3487    2.4253    0.0000 C   0  0  0  0  0  0  0  0  0  0
    6.9495    2.4253    0.0000 C   0  0  0  0  0  0  0  0  0  0
    6.2499    3.6380    0.0000 N   0  3  0  0  0  0  0  0  0  0
    6.9495    4.8507    0.0000 O   0  5  0  0  0  0  0  0  0  0
    4.8507    3.6380    0.0000 O   0  0  0  0  0  0  0  0  0  0
   10.4476    1.2127    0.0000 N   0  3  0  0  0  0  0  0  0  0
   11.1472    0.0000    0.0000 O   0  5  0  0  0  0  0  0  0  0
   11.1472    2.4253    0.0000 O   0  0  0  0  0  0  0  0  0  0
    0.6530    1.2127    0.0000 N   0  3  0  0  0  0  0  0  0  0
   -0.0000    2.4253    0.0000 O   0  5  0  0  0  0  0  0  0  0
   -0.0000    0.0000    0.0000 O   0  0  0  0  0  0  0  0  0  0
  1  2  4  0  0  0  0
  2  3  4  0  0  0  0
  3  4  4  0  0  0  0
  4  5  4  0  0  0  0
  5  6  4  0  0  0  0
  1  6  4  0  0  0  0
  5  7  1  0  0  0  0
  7  8  4  0  0  0  0
  8  9  4  0  0  0  0
  9 10  4  0  0  0  0
 10 11  4  0  0  0  0
 11 12  4  0  0  0  0
  7 12  4  0  0  0  0
 12 13  1  0  0  0  0
 13 14  1  0  0  0  0
 13 15  2  0  0  0  0
 10 16  1  0  0  0  0
 16 17  1  0  0  0  0
 16 18  2  0  0  0  0
  2 19  1  0  0  0  0
 19 20  1  0  0  0  0
 19 21  2  0  0  0  0
M  END
>  <Compound Name> (57)
2,4,4'-trinitrobiphenyl

>  <Formula> (57)
C12H7N3O6

>  <LogP> (57)
3.26

>  <LUMO> (57)
-2.242

>  <MOL_ID> (57)
57

>  <Activity> (57)
0.66

$$$$
trans-9,10-dihydro-3-nitrobenzo[a]pyrene-9,10-diol
csChmFindW1207992328
[comments]
 25 29  0     0  0  0  0  0  0  1 V2000
    1.1194    2.0988    0.0000 C   0  0  0  0  0  0  0  0  0  0
    1.1194    0.6996    0.0000 C   0  0  0  0  0  0  0  0  0  0
    2.3320    0.0000    0.0000 C   0  0  0  0  0  0  0  0  0  0
    3.5447    0.6996    0.0000 C   0  0  0  0  0  0  0  0  0  0
    3.5447    2.0988    0.0000 C   0  0  0  0  0  0  0  0  0  0
    2.3320    2.7985    0.0000 C   0  0  0  0  0  0  0  0  0  0
    4.7574    0.0000    0.0000 C   0  0  0  0  0  0  0  0  0  0
    5.9700    0.6996    0.0000 C   0  0  0  0  0  0  0  0  0  0
    5.9700    2.0988    0.0000 C   0  0  0  0  0  0  0  0  0  0
    4.7574    2.7985    0.0000 C   0  0  0  0  0  0  0  0  0  0
    7.1827    0.0000    0.0000 C   0  0  0  0  0  0  0  0  0  0
    8.3954    0.6996    0.0000 C   0  0  0  0  0  0  0  0  0  0
    8.3954    2.0988    0.0000 C   0  0  0  0  0  0  0  0  0  0
    7.1827    2.7985    0.0000 C   0  0  0  0  0  0  0  0  0  0
    7.1827    4.1977    0.0000 C   0  0  0  0  0  0  0  0  0  0
    5.9700    4.8973    0.0000 C   0  0  0  0  0  0  0  0  0  0
    4.7574    4.1977    0.0000 C   0  0  0  0  0  0  0  0  0  0
    9.6080    2.7985    0.0000 C   0  0  0  0  0  0  0  0  0  0
    9.6080    4.1977    0.0000 C   0  0  0  0  0  0  0  0  0  0
    8.3954    4.8973    0.0000 C   0  0  0  0  0  0  0  0  0  0
    2.3320    4.1977    0.0000 O   0  0  0  0  0  0  0  0  0  0
    0.0000    2.7985    0.0000 O   0  0  0  0  0  0  0  0  0  0
   10.8207    2.0988    0.0000 N   0  3  0  0  0  0  0  0  0  0
   10.8207    0.6996    0.0000 O   0  5  0  0  0  0  0  0  0  0
   12.0334    2.7985    0.0000 O   0  0  0  0  0  0  0  0  0  0
  1  2  1  0  0  0  0
  2  3  2  0  0  0  0
  3  4  1  0  0  0  0
  4  5  4  0  0  0  0
  5  6  1  0  0  0  0
  1  6  1  0  0  0  0
  4  7  4  0  0  0  0
  7  8  4  0  0  0  0
  8  9  4  0  0  0  0
  9 10  4  0  0  0  0
  5 10  4  0  0  0  0
  8 11  4  0  0  0  0
 11 12  4  0  0  0  0
 12 13  4  0  0  0  0
 13 14  4  0  0  0  0
  9 14  4  0  0  0  0
 14 15  4  0  0  0  0
 15 16  4  0  0  0  0
 16 17  4  0  0  0  0
 10 17  4  0  0  0  0
 13 18  4  0  0  0  0
 18 19  4  0  0  0  0
 19 20  4  0  0  0  0
 15 20  4  0  0  0  0
  6 21  1  1  0  0  0
  1 22  1  6  0  0  0
 18 23  1  0  0  0  0
 23 24  1  0  0  0  0
 23 25  2  0  0  0  0
M  END
>  <Compound Name> (58)
trans-9,10-dihydro-3-nitrobenzo[a]pyrene-9,10-diol

>  <Formula> (58)
C20H13NO4

>  <LogP> (58)
3.01

>  <LUMO> (58)
-1.991

>  <MOL_ID> (58)
58

>  <Activity> (58)
2.8

$$$$
2-nitrobenz[l]aceanthrylene
csChmFindW1207992328
[comments]
 23 27  0     0  0  0  0  0  0  1 V2000
    6.0166    2.0988    0.0000 C   0  0  0  0  0  0  0  0  0  0
    6.0166    0.6996    0.0000 C   0  0  0  0  0  0  0  0  0  0
    7.2293   -0.0000    0.0000 C   0  0  0  0  0  0  0  0  0  0
    8.4420    0.6996    0.0000 C   0  0  0  0  0  0  0  0  0  0
    8.4420    2.0988    0.0000 C   0  0  0  0  0  0  0  0  0  0
    7.2293    2.7984    0.0000 C   0  0  0  0  0  0  0  0  0  0
    4.8040    2.7984    0.0000 C   0  0  0  0  0  0  0  0  0  0
    3.5913    2.0988    0.0000 C   0  0  0  0  0  0  0  0  0  0
    3.5913    0.6996    0.0000 C   0  0  0  0  0  0  0  0  0  0
    4.8040   -0.0000    0.0000 C   0  0  0  0  0  0  0  0  0  0
    7.2293    4.1977    0.0000 C   0  0  0  0  0  0  0  0  0  0
    4.8040    4.1977    0.0000 C   0  0  0  0  0  0  0  0  0  0
    2.3787    2.7984    0.0000 C   0  0  0  0  0  0  0  0  0  0
    1.1660    2.0988    0.0000 C   0  0  0  0  0  0  0  0  0  0
    1.1660    0.6996    0.0000 C   0  0  0  0  0  0  0  0  0  0
    2.3787   -0.0000    0.0000 C   0  0  0  0  0  0  0  0  0  0
    2.3787    4.1977    0.0000 C   0  0  0  0  0  0  0  0  0  0
    1.1660    4.8973    0.0000 C   0  0  0  0  0  0  0  0  0  0
   -0.0000    4.1977    0.0000 C   0  0  0  0  0  0  0  0  0  0
   -0.0000    2.7984    0.0000 C   0  0  0  0  0  0  0  0  0  0
    8.4420    4.8973    0.0000 N   0  3  0  0  0  0  0  0  0  0
    9.6546    4.1977    0.0000 O   0  5  0  0  0  0  0  0  0  0
    8.4420    6.2965    0.0000 O   0  0  0  0  0  0  0  0  0  0
  1  2  4  0  0  0  0
  2  3  4  0  0  0  0
  3  4  4  0  0  0  0
  4  5  4  0  0  0  0
  5  6  4  0  0  0  0
  1  6  4  0  0  0  0
  1  7  4  0  0  0  0
  7  8  4  0  0  0  0
  8  9  4  0  0  0  0
  9 10  4  0  0  0  0
  2 10  4  0  0  0  0
  6 11  1  0  0  0  0
  7 12  1  0  0  0  0
 11 12  2  0  0  0  0
  8 13  4  0  0  0  0
 13 14  4  0  0  0  0
 14 15  4  0  0  0  0
 15 16  4  0  0  0  0
  9 16  4  0  0  0  0
 13 17  4  0  0  0  0
 17 18  4  0  0  0  0
 18 19  4  0  0  0  0
 19 20  4  0  0  0  0
 14 20  4  0  0  0  0
 11 21  1  0  0  0  0
 21 22  1  0  0  0  0
 21 23  2  0  0  0  0
M  END
>  <Compound Name> (59)
2-nitrobenz[l]aceanthrylene

>  <Formula> (59)
C20H11NO2

>  <LogP> (59)
5.07

>  <LUMO> (59)
-2.14

>  <MOL_ID> (59)
59

>  <Activity> (59)
0.26

$$$$
1,3,8-trinitronaphthalene
csChmFindW1207992328
[comments]
 19 20  0     0  0  0  0  0  0  1 V2000
    2.3800    3.5000    0.0000 C   0  0  0  0  0  0  0  0  0  0
    2.3800    2.1000    0.0000 C   0  0  0  0  0  0  0  0  0  0
    3.5933    1.4000    0.0000 C   0  0  0  0  0  0  0  0  0  0
    4.8067    2.1000    0.0000 C   0  0  0  0  0  0  0  0  0  0
    4.8067    3.5000    0.0000 C   0  0  0  0  0  0  0  0  0  0
    3.5933    4.2000    0.0000 C   0  0  0  0  0  0  0  0  0  0
    1.1667    4.2000    0.0000 C   0  0  0  0  0  0  0  0  0  0
    0.0000    3.5000    0.0000 C   0  0  0  0  0  0  0  0  0  0
    0.0000    2.1000    0.0000 C   0  0  0  0  0  0  0  0  0  0
    1.1667    1.4000    0.0000 C   0  0  0  0  0  0  0  0  0  0
    3.5933    5.3200    0.0000 N   0  3  0  0  0  0  0  0  0  0
    4.4333    6.0667    0.0000 O   0  5  0  0  0  0  0  0  0  0
    2.7533    5.9733    0.0000 O   0  0  0  0  0  0  0  0  0  0
    6.0200    1.4000    0.0000 N   0  3  0  0  0  0  0  0  0  0
    6.0200   -0.0000    0.0000 O   0  5  0  0  0  0  0  0  0  0
    7.2333    2.1000    0.0000 O   0  0  0  0  0  0  0  0  0  0
    1.1667    5.1800    0.0000 N   0  3  0  0  0  0  0  0  0  0
    1.8200    6.0200    0.0000 O   0  5  0  0  0  0  0  0  0  0
    0.0000    5.9733    0.0000 O   0  0  0  0  0  0  0  0  0  0
  1  2  4  0  0  0  0
  2  3  4  0  0  0  0
  3  4  4  0  0  0  0
  4  5  4  0  0  0  0
  5  6  4  0  0  0  0
  1  6  4  0  0  0  0
  1  7  4  0  0  0  0
  7  8  4  0  0  0  0
  8  9  4  0  0  0  0
  9 10  4  0  0  0  0
  2 10  4  0  0  0  0
  6 11  1  0  0  0  0
 11 12  1  0  0  0  0
 11 13  2  0  0  0  0
  4 14  1  0  0  0  0
 14 15  1  0  0  0  0
 14 16  2  0  0  0  0
  7 17  1  0  0  0  0
 17 18  1  0  0  0  0
 17 19  2  0  0  0  0
M  END
>  <Compound Name> (60)
1,3,8-trinitronaphthalene

>  <Formula> (60)
C10H5N3O6

>  <LogP> (60)
2.3

>  <LUMO> (60)
-2.468

>  <MOL_ID> (60)
60

>  <Activity> (60)
0.35

$$$$
2-chloro-7-nitrofluorene
csChmFindW1207992328
[comments]
 17 19  0     0  0  0  0  0  0  1 V2000
    2.3800    3.5000    0.0000 C   0  0  0  0  0  0  0  0  0  0
    2.3800    2.1000    0.0000 C   0  0  0  0  0  0  0  0  0  0
    3.5933    1.4000    0.0000 C   0  0  0  0  0  0  0  0  0  0
    4.8067    2.1000    0.0000 C   0  0  0  0  0  0  0  0  0  0
    4.8067    3.5000    0.0000 C   0  0  0  0  0  0  0  0  0  0
    3.5933    4.1533    0.0000 C   0  0  0  0  0  0  0  0  0  0
    6.0200    1.4000    0.0000 C   0  0  0  0  0  0  0  0  0  0
    7.2333    2.1000    0.0000 C   0  0  0  0  0  0  0  0  0  0
    7.2333    3.5000    0.0000 C   0  0  0  0  0  0  0  0  0  0
    8.4467    1.4000    0.0000 C   0  0  0  0  0  0  0  0  0  0
    9.6600    2.1000    0.0000 C   0  0  0  0  0  0  0  0  0  0
    9.6600    3.5000    0.0000 C   0  0  0  0  0  0  0  0  0  0
    8.4467    4.1533    0.0000 C   0  0  0  0  0  0  0  0  0  0
   10.8733    1.4000    0.0000 Cl  0  0  0  0  0  0  0  0  0  0
    1.1667    1.4000    0.0000 N   0  3  0  0  0  0  0  0  0  0
   -0.0000    2.1000    0.0000 O   0  5  0  0  0  0  0  0  0  0
    1.1667    0.0000    0.0000 O   0  0  0  0  0  0  0  0  0  0
  1  2  4  0  0  0  0
  2  3  4  0  0  0  0
  3  4  4  0  0  0  0
  4  5  4  0  0  0  0
  5  6  4  0  0  0  0
  1  6  4  0  0  0  0
  4  7  1  0  0  0  0
  7  8  1  0  0  0  0
  8  9  4  0  0  0  0
  5  9  1  0  0  0  0
  8 10  4  0  0  0  0
 10 11  4  0  0  0  0
 11 12  4  0  0  0  0
 12 13  4  0  0  0  0
  9 13  4  0  0  0  0
 11 14  1  0  0  0  0
  2 15  1  0  0  0  0
 15 16  1  0  0  0  0
 15 17  2  0  0  0  0
M  END
>  <Compound Name> (61)
2-chloro-7-nitrofluorene

>  <Formula> (61)
C13H8ClNO2

>  <LogP> (61)
4.68

>  <LUMO> (61)
-1.556

>  <MOL_ID> (61)
61

>  <Activity> (61)
3.11

$$$$
2-amino-5-nitrophenol
csChmFindW1207992328
[comments]
 11 11  0     0  0  0  0  0  0  1 V2000
    1.3526    3.6380    0.0000 C   0  0  0  0  0  0  0  0  0  0
    2.0522    2.4253    0.0000 C   0  0  0  0  0  0  0  0  0  0
    3.4514    2.4253    0.0000 C   0  0  0  0  0  0  0  0  0  0
    4.1510    3.6380    0.0000 C   0  0  0  0  0  0  0  0  0  0
    3.4514    4.8506    0.0000 C   0  0  0  0  0  0  0  0  0  0
    2.0522    4.8506    0.0000 C   0  0  0  0  0  0  0  0  0  0
    5.5503    3.6380    0.0000 O   0  0  0  0  0  0  0  0  0  0
    4.1510    6.0167    0.0000 N   0  0  0  2  0  0  0  0  0  0
    1.3526    1.2127    0.0000 N   0  3  0  0  0  0  0  0  0  0
   -0.0000    1.2127    0.0000 O   0  5  0  0  0  0  0  0  0  0
    2.0522   -0.0000    0.0000 O   0  0  0  0  0  0  0  0  0  0
  1  2  4  0  0  0  0
  2  3  4  0  0  0  0
  3  4  4  0  0  0  0
  4  5  4  0  0  0  0
  5  6  4  0  0  0  0
  1  6  4  0  0  0  0
  4  7  1  0  0  0  0
  5  8  1  0  0  0  0
  2  9  1  0  0  0  0
  9 10  1  0  0  0  0
  9 11  2  0  0  0  0
M  END
>  <Compound Name> (62)
2-amino-5-nitrophenol

>  <Formula> (62)
C6H6N2O3

>  <LogP> (62)
1.36

>  <LUMO> (62)
-0.923

>  <MOL_ID> (62)
62

>  <Activity> (62)
-2.4

$$$$
N'(5nitro2furfuryliden)5nitro2furanacrylohydrazide
csChmFindW1207992328
[comments]
 23 24  0     0  0  0  0  0  0  1 V2000
    5.6435    3.0316    0.0000 C   0  0  0  0  0  0  0  0  0  0
    4.2443    3.0316    0.0000 C   0  0  0  0  0  0  0  0  0  0
    3.8245    1.6791    0.0000 C   0  0  0  0  0  0  0  0  0  0
    4.9439    0.8862    0.0000 O   0  0  0  0  0  0  0  0  0  0
    6.0633    1.6791    0.0000 C   0  0  0  0  0  0  0  0  0  0
    7.2760    0.9795    0.0000 C   0  0  0  0  0  0  0  0  0  0
    8.4886    1.6791    0.0000 C   0  0  0  0  0  0  0  0  0  0
    2.4720    1.3526    0.0000 N   0  3  0  0  0  0  0  0  0  0
    1.5391    2.3320    0.0000 O   0  5  0  0  0  0  0  0  0  0
    2.0988    0.0000    0.0000 O   0  0  0  0  0  0  0  0  0  0
    8.4886    3.0783    0.0000 C   0  0  0  0  0  0  0  0  0  0
    9.7013    3.7779    0.0000 O   0  0  0  0  0  0  0  0  0  0
    7.2760    3.7779    0.0000 N   0  0  0  0  0  0  0  0  0  0
    7.2760    5.1771    0.0000 N   0  0  0  1  0  0  0  0  0  0
    6.0633    5.8767    0.0000 C   0  0  0  0  0  0  0  0  0  0
    4.7107    5.5503    0.0000 C   0  0  0  0  0  0  0  0  0  0
    3.4981    6.3898    0.0000 O   0  0  0  0  0  0  0  0  0  0
    2.3320    5.5503    0.0000 C   0  0  0  0  0  0  0  0  0  0
    2.7984    4.1510    0.0000 C   0  0  0  0  0  0  0  0  0  0
    4.2910    4.1510    0.0000 C   0  0  0  0  0  0  0  0  0  0
    0.9795    5.8767    0.0000 N   0  3  0  0  0  0  0  0  0  0
    0.6063    7.2293    0.0000 O   0  5  0  0  0  0  0  0  0  0
    0.0000    4.8973    0.0000 O   0  0  0  0  0  0  0  0  0  0
  1  2  4  0  0  0  0
  2  3  4  0  0  0  0
  3  4  4  0  0  0  0
  4  5  4  0  0  0  0
  1  5  4  0  0  0  0
  5  6  1  0  0  0  0
  6  7  2  0  0  0  0
  3  8  1  0  0  0  0
  8  9  1  0  0  0  0
  8 10  2  0  0  0  0
  7 11  1  0  0  0  0
 11 12  2  0  0  0  0
 11 13  1  0  0  0  0
 13 14  1  0  0  0  0
 14 15  2  0  0  0  0
 15 16  1  0  0  0  0
 16 17  4  0  0  0  0
 17 18  4  0  0  0  0
 18 19  4  0  0  0  0
 19 20  4  0  0  0  0
 16 20  4  0  0  0  0
 18 21  1  0  0  0  0
 21 22  1  0  0  0  0
 21 23  2  0  0  0  0
M  END
>  <Compound Name> (63)
N'(5nitro2furfuryliden)5nitro2furanacrylohydrazide

>  <Formula> (63)
C12H8N4O7

>  <LogP> (63)
2.79

>  <LUMO> (63)
-3.768

>  <MOL_ID> (63)
63

>  <Activity> (63)
2.45

$$$$
2,7-dinitro-9-fluorenone
csChmFindW1207992328
[comments]
 20 22  0     0  0  0  0  0  0  1 V2000
    2.3787    3.4981    0.0000 C   0  0  0  0  0  0  0  0  0  0
    2.3787    2.0988    0.0000 C   0  0  0  0  0  0  0  0  0  0
    3.5913    1.3992    0.0000 C   0  0  0  0  0  0  0  0  0  0
    4.8040    2.0988    0.0000 C   0  0  0  0  0  0  0  0  0  0
    4.8040    3.4981    0.0000 C   0  0  0  0  0  0  0  0  0  0
    3.5913    4.1977    0.0000 C   0  0  0  0  0  0  0  0  0  0
    6.0167    1.3992    0.0000 C   0  0  0  0  0  0  0  0  0  0
    7.2293    2.0988    0.0000 C   0  0  0  0  0  0  0  0  0  0
    7.2293    3.4981    0.0000 C   0  0  0  0  0  0  0  0  0  0
    8.4420    1.3992    0.0000 C   0  0  0  0  0  0  0  0  0  0
    9.6546    2.0988    0.0000 C   0  0  0  0  0  0  0  0  0  0
    9.6546    3.4981    0.0000 C   0  0  0  0  0  0  0  0  0  0
    8.4420    4.1977    0.0000 C   0  0  0  0  0  0  0  0  0  0
    6.0167    0.0000    0.0000 O   0  0  0  0  0  0  0  0  0  0
   10.8673    1.3992    0.0000 N   0  3  0  0  0  0  0  0  0  0
   10.8673    0.0000    0.0000 O   0  5  0  0  0  0  0  0  0  0
   12.0800    2.0988    0.0000 O   0  0  0  0  0  0  0  0  0  0
    1.1660    1.3992    0.0000 N   0  3  0  0  0  0  0  0  0  0
    0.0000    2.0988    0.0000 O   0  5  0  0  0  0  0  0  0  0
    1.1660    0.0000    0.0000 O   0  0  0  0  0  0  0  0  0  0
  1  2  4  0  0  0  0
  2  3  4  0  0  0  0
  3  4  4  0  0  0  0
  4  5  4  0  0  0  0
  5  6  4  0  0  0  0
  1  6  4  0  0  0  0
  4  7  1  0  0  0  0
  7  8  1  0  0  0  0
  8  9  4  0  0  0  0
  5  9  1  0  0  0  0
  8 10  4  0  0  0  0
 10 11  4  0  0  0  0
 11 12  4  0  0  0  0
 12 13  4  0  0  0  0
  9 13  4  0  0  0  0
  7 14  2  0  0  0  0
 11 15  1  0  0  0  0
 15 16  1  0  0  0  0
 15 17  2  0  0  0  0
  2 18  1  0  0  0  0
 18 19  1  0  0  0  0
 18 20  2  0  0  0  0
M  END
>  <Compound Name> (64)
2,7-dinitro-9-fluorenone

>  <Formula> (64)
C13H6N2O5

>  <LogP> (64)
2.84

>  <LUMO> (64)
-2.338

>  <MOL_ID> (64)
64

>  <Activity> (64)
3.19

$$$$
1,3-dinitronaphthalene
csChmFindW1207992328
[comments]
 16 17  0     0  0  0  0  0  0  1 V2000
    2.3787    3.4980    0.0000 C   0  0  0  0  0  0  0  0  0  0
    2.3787    2.0988    0.0000 C   0  0  0  0  0  0  0  0  0  0
    3.5913    1.3992    0.0000 C   0  0  0  0  0  0  0  0  0  0
    4.8040    2.0988    0.0000 C   0  0  0  0  0  0  0  0  0  0
    4.8040    3.4980    0.0000 C   0  0  0  0  0  0  0  0  0  0
    3.5913    4.1977    0.0000 C   0  0  0  0  0  0  0  0  0  0
    1.1660    4.1977    0.0000 C   0  0  0  0  0  0  0  0  0  0
   -0.0000    3.4980    0.0000 C   0  0  0  0  0  0  0  0  0  0
   -0.0000    2.0988    0.0000 C   0  0  0  0  0  0  0  0  0  0
    1.1660    1.3992    0.0000 C   0  0  0  0  0  0  0  0  0  0
    3.5913    5.5969    0.0000 N   0  3  0  0  0  0  0  0  0  0
    4.8040    6.2965    0.0000 O   0  5  0  0  0  0  0  0  0  0
    2.3787    6.2965    0.0000 O   0  0  0  0  0  0  0  0  0  0
    6.0166    1.3992    0.0000 N   0  3  0  0  0  0  0  0  0  0
    6.0166   -0.0000    0.0000 O   0  5  0  0  0  0  0  0  0  0
    7.2293    2.0988    0.0000 O   0  0  0  0  0  0  0  0  0  0
  1  2  4  0  0  0  0
  2  3  4  0  0  0  0
  3  4  4  0  0  0  0
  4  5  4  0  0  0  0
  5  6  4  0  0  0  0
  1  6  4  0  0  0  0
  1  7  4  0  0  0  0
  7  8  4  0  0  0  0
  8  9  4  0  0  0  0
  9 10  4  0  0  0  0
  2 10  4  0  0  0  0
  6 11  1  0  0  0  0
 11 12  1  0  0  0  0
 11 13  2  0  0  0  0
  4 14  1  0  0  0  0
 14 15  1  0  0  0  0
 14 16  2  0  0  0  0
M  END
>  <Compound Name> (65)
1,3-dinitronaphthalene

>  <Formula> (65)
C10H6N2O4

>  <LogP> (65)
2.83

>  <LUMO> (65)
-1.952

>  <MOL_ID> (65)
65

>  <Activity> (65)
-0.05

$$$$
4-amino-3'-nitrobiphenyl
csChmFindW1207992328
[comments]
 16 17  0     0  0  0  0  0  0  1 V2000
    2.0522    2.4253    0.0000 C   0  0  0  0  0  0  0  0  0  0
    1.3526    1.2127    0.0000 C   0  0  0  0  0  0  0  0  0  0
    2.0522    0.0000    0.0000 C   0  0  0  0  0  0  0  0  0  0
    3.4514    0.0000    0.0000 C   0  0  0  0  0  0  0  0  0  0
    4.1510    1.2127    0.0000 C   0  0  0  0  0  0  0  0  0  0
    3.4514    2.4253    0.0000 C   0  0  0  0  0  0  0  0  0  0
    5.5503    1.2127    0.0000 C   0  0  0  0  0  0  0  0  0  0
    6.2499    0.0000    0.0000 C   0  0  0  0  0  0  0  0  0  0
    7.6491    0.0000    0.0000 C   0  0  0  0  0  0  0  0  0  0
    8.3487    1.2127    0.0000 C   0  0  0  0  0  0  0  0  0  0
    7.6491    2.4253    0.0000 C   0  0  0  0  0  0  0  0  0  0
    6.2499    2.4253    0.0000 C   0  0  0  0  0  0  0  0  0  0
    1.3526    3.6380    0.0000 N   0  3  0  0  0  0  0  0  0  0
    2.0522    4.8040    0.0000 O   0  5  0  0  0  0  0  0  0  0
    0.0000    3.6380    0.0000 O   0  0  0  0  0  0  0  0  0  0
    9.7479    1.2127    0.0000 N   0  0  0  2  0  0  0  0  0  0
  1  2  4  0  0  0  0
  2  3  4  0  0  0  0
  3  4  4  0  0  0  0
  4  5  4  0  0  0  0
  5  6  4  0  0  0  0
  1  6  4  0  0  0  0
  5  7  1  0  0  0  0
  7  8  4  0  0  0  0
  8  9  4  0  0  0  0
  9 10  4  0  0  0  0
 10 11  4  0  0  0  0
 11 12  4  0  0  0  0
  7 12  4  0  0  0  0
  1 13  1  0  0  0  0
 13 14  1  0  0  0  0
 13 15  2  0  0  0  0
 10 16  1  0  0  0  0
M  END
>  <Compound Name> (66)
4-amino-3'-nitrobiphenyl

>  <Formula> (66)
C12H10N2O2

>  <LogP> (66)
2.68

>  <LUMO> (66)
-0.959

>  <MOL_ID> (66)
66

>  <Activity> (66)
-1.52

$$$$
2-hydroxy-1-nitrofluoranthene
csChmFindW1207992328
[comments]
 20 23  0     0  0  0  0  0  0  1 V2000
    2.3787    2.0988    0.0000 C   0  0  0  0  0  0  0  0  0  0
    2.3787    0.6996    0.0000 C   0  0  0  0  0  0  0  0  0  0
    3.5913   -0.0000    0.0000 C   0  0  0  0  0  0  0  0  0  0
    4.8040    0.6996    0.0000 C   0  0  0  0  0  0  0  0  0  0
    4.8040    2.0988    0.0000 C   0  0  0  0  0  0  0  0  0  0
    3.5913    2.7984    0.0000 C   0  0  0  0  0  0  0  0  0  0
    1.1660    2.7984    0.0000 C   0  0  0  0  0  0  0  0  0  0
   -0.0000    2.0988    0.0000 C   0  0  0  0  0  0  0  0  0  0
   -0.0000    0.6996    0.0000 C   0  0  0  0  0  0  0  0  0  0
    1.1660   -0.0000    0.0000 C   0  0  0  0  0  0  0  0  0  0
    3.0783    4.1977    0.0000 C   0  0  0  0  0  0  0  0  0  0
    1.6324    4.1977    0.0000 C   0  0  0  0  0  0  0  0  0  0
    3.8245    5.4569    0.0000 C   0  0  0  0  0  0  0  0  0  0
    3.0783    6.7162    0.0000 C   0  0  0  0  0  0  0  0  0  0
    1.6324    6.7162    0.0000 C   0  0  0  0  0  0  0  0  0  0
    0.9328    5.4569    0.0000 C   0  0  0  0  0  0  0  0  0  0
    6.0166   -0.0000    0.0000 O   0  0  0  0  0  0  0  0  0  0
    6.0166    2.7984    0.0000 N   0  3  0  0  0  0  0  0  0  0
    7.2293    2.0988    0.0000 O   0  5  0  0  0  0  0  0  0  0
    6.0166    4.1977    0.0000 O   0  0  0  0  0  0  0  0  0  0
  1  2  4  0  0  0  0
  2  3  4  0  0  0  0
  3  4  4  0  0  0  0
  4  5  4  0  0  0  0
  5  6  4  0  0  0  0
  1  6  4  0  0  0  0
  1  7  4  0  0  0  0
  7  8  4  0  0  0  0
  8  9  4  0  0  0  0
  9 10  4  0  0  0  0
  2 10  4  0  0  0  0
  6 11  1  0  0  0  0
  7 12  1  0  0  0  0
 11 12  4  0  0  0  0
 11 13  4  0  0  0  0
 13 14  4  0  0  0  0
 14 15  4  0  0  0  0
 15 16  4  0  0  0  0
 12 16  4  0  0  0  0
  4 17  1  0  0  0  0
  5 18  1  0  0  0  0
 18 19  1  0  0  0  0
 18 20  2  0  0  0  0
M  END
>  <Compound Name> (67)
2-hydroxy-1-nitrofluoranthene

>  <Formula> (67)
C16H9NO3

>  <LogP> (67)
4.66

>  <LUMO> (67)
-1.536

>  <MOL_ID> (67)
67

>  <Activity> (67)
2.26

$$$$
3-nitro-benzo[a]pyrene
csChmFindW1207992328
[comments]
 23 27  0     0  0  0  0  0  0  1 V2000
    0.0000    2.1000    0.0000 C   0  0  0  0  0  0  0  0  0  0
    0.0000    0.7000    0.0000 C   0  0  0  0  0  0  0  0  0  0
    1.1667    0.0000    0.0000 C   0  0  0  0  0  0  0  0  0  0
    2.3800    0.7000    0.0000 C   0  0  0  0  0  0  0  0  0  0
    2.3800    2.1000    0.0000 C   0  0  0  0  0  0  0  0  0  0
    1.1667    2.8000    0.0000 C   0  0  0  0  0  0  0  0  0  0
    3.5933    0.0000    0.0000 C   0  0  0  0  0  0  0  0  0  0
    4.8066    0.7000    0.0000 C   0  0  0  0  0  0  0  0  0  0
    4.8066    2.1000    0.0000 C   0  0  0  0  0  0  0  0  0  0
    3.5933    2.8000    0.0000 C   0  0  0  0  0  0  0  0  0  0
    6.0200    0.0000    0.0000 C   0  0  0  0  0  0  0  0  0  0
    7.2333    0.7000    0.0000 C   0  0  0  0  0  0  0  0  0  0
    7.2333    2.1000    0.0000 C   0  0  0  0  0  0  0  0  0  0
    6.0200    2.8000    0.0000 C   0  0  0  0  0  0  0  0  0  0
    6.0200    4.2000    0.0000 C   0  0  0  0  0  0  0  0  0  0
    4.8066    4.8533    0.0000 C   0  0  0  0  0  0  0  0  0  0
    3.5933    4.2000    0.0000 C   0  0  0  0  0  0  0  0  0  0
    8.4466    2.8000    0.0000 C   0  0  0  0  0  0  0  0  0  0
    8.4466    4.2000    0.0000 C   0  0  0  0  0  0  0  0  0  0
    7.2333    4.8533    0.0000 C   0  0  0  0  0  0  0  0  0  0
    9.6600    2.1000    0.0000 N   0  3  0  0  0  0  0  0  0  0
    9.6600    0.7000    0.0000 O   0  5  0  0  0  0  0  0  0  0
   10.8733    2.8000    0.0000 O   0  0  0  0  0  0  0  0  0  0
  1  2  4  0  0  0  0
  2  3  4  0  0  0  0
  3  4  4  0  0  0  0
  4  5  4  0  0  0  0
  5  6  4  0  0  0  0
  1  6  4  0  0  0  0
  4  7  4  0  0  0  0
  7  8  4  0  0  0  0
  8  9  4  0  0  0  0
  9 10  4  0  0  0  0
  5 10  4  0  0  0  0
  8 11  4  0  0  0  0
 11 12  4  0  0  0  0
 12 13  4  0  0  0  0
 13 14  4  0  0  0  0
  9 14  4  0  0  0  0
 14 15  4  0  0  0  0
 15 16  4  0  0  0  0
 16 17  4  0  0  0  0
 10 17  4  0  0  0  0
 13 18  4  0  0  0  0
 18 19  4  0  0  0  0
 19 20  4  0  0  0  0
 15 20  4  0  0  0  0
 18 21  1  0  0  0  0
 21 22  1  0  0  0  0
 21 23  2  0  0  0  0
M  END
>  <Compound Name> (68)
3-nitro-benzo[a]pyrene

>  <Formula> (68)
C20H11NO2

>  <LogP> (68)
5.87

>  <LUMO> (68)
-1.766

>  <MOL_ID> (68)
68

>  <Activity> (68)
2.82

$$$$
2,5-dinitrofluorene
csChmFindW1207992328
[comments]
 19 21  0     0  0  0  0  0  0  1 V2000
   -0.0000    3.4981    0.0000 C   0  0  0  0  0  0  0  0  0  0
   -0.0000    2.0988    0.0000 C   0  0  0  0  0  0  0  0  0  0
    1.1660    1.3992    0.0000 C   0  0  0  0  0  0  0  0  0  0
    2.3787    2.0988    0.0000 C   0  0  0  0  0  0  0  0  0  0
    2.3787    3.4981    0.0000 C   0  0  0  0  0  0  0  0  0  0
    1.1660    4.1977    0.0000 C   0  0  0  0  0  0  0  0  0  0
    3.5913    1.3992    0.0000 C   0  0  0  0  0  0  0  0  0  0
    4.8040    2.0988    0.0000 C   0  0  0  0  0  0  0  0  0  0
    4.8040    3.4981    0.0000 C   0  0  0  0  0  0  0  0  0  0
    6.0167    1.3992    0.0000 C   0  0  0  0  0  0  0  0  0  0
    7.2293    2.0988    0.0000 C   0  0  0  0  0  0  0  0  0  0
    7.2293    3.4981    0.0000 C   0  0  0  0  0  0  0  0  0  0
    6.0167    4.1977    0.0000 C   0  0  0  0  0  0  0  0  0  0
    8.4420    1.3992    0.0000 N   0  3  0  0  0  0  0  0  0  0
    8.4420   -0.0000    0.0000 O   0  5  0  0  0  0  0  0  0  0
    9.6547    2.0988    0.0000 O   0  0  0  0  0  0  0  0  0  0
    1.1660    5.5969    0.0000 N   0  3  0  0  0  0  0  0  0  0
    2.3787    6.2965    0.0000 O   0  5  0  0  0  0  0  0  0  0
   -0.0000    6.2965    0.0000 O   0  0  0  0  0  0  0  0  0  0
  1  2  4  0  0  0  0
  2  3  4  0  0  0  0
  3  4  4  0  0  0  0
  4  5  4  0  0  0  0
  5  6  4  0  0  0  0
  1  6  4  0  0  0  0
  4  7  1  0  0  0  0
  7  8  1  0  0  0  0
  8  9  4  0  0  0  0
  5  9  1  0  0  0  0
  8 10  4  0  0  0  0
 10 11  4  0  0  0  0
 11 12  4  0  0  0  0
 12 13  4  0  0  0  0
  9 13  4  0  0  0  0
 11 14  1  0  0  0  0
 14 15  1  0  0  0  0
 14 16  2  0  0  0  0
  6 17  1  0  0  0  0
 17 18  1  0  0  0  0
 17 19  2  0  0  0  0
M  END
>  <Compound Name> (69)
2,5-dinitrofluorene

>  <Formula> (69)
C13H8N2O4

>  <LogP> (69)
3.71

>  <LUMO> (69)
-1.929

>  <MOL_ID> (69)
69

>  <Activity> (69)
3.2

$$$$
5-nitroisatin
csChmFindW1207992328
[comments]
 14 15  0     0  0  0  0  0  0  1 V2000
    2.3787    2.0988    0.0000 C   0  0  0  0  0  0  0  0  0  0
    2.3787    0.6996    0.0000 C   0  0  0  0  0  0  0  0  0  0
    3.5913    0.0000    0.0000 C   0  0  0  0  0  0  0  0  0  0
    4.8040    0.6996    0.0000 C   0  0  0  0  0  0  0  0  0  0
    4.8040    2.0988    0.0000 C   0  0  0  0  0  0  0  0  0  0
    3.5913    2.7984    0.0000 C   0  0  0  0  0  0  0  0  0  0
    6.0167    0.0000    0.0000 N   0  0  0  1  0  0  0  0  0  0
    7.2293    0.6996    0.0000 C   0  0  0  0  0  0  0  0  0  0
    7.2293    2.0988    0.0000 C   0  0  0  0  0  0  0  0  0  0
    8.2088    3.0783    0.0000 O   0  0  0  0  0  0  0  0  0  0
    8.4420    0.0000    0.0000 O   0  0  0  0  0  0  0  0  0  0
    1.1660    2.7984    0.0000 N   0  3  0  0  0  0  0  0  0  0
    1.1660    4.1977    0.0000 O   0  5  0  0  0  0  0  0  0  0
   -0.0000    2.0988    0.0000 O   0  0  0  0  0  0  0  0  0  0
  1  2  4  0  0  0  0
  2  3  4  0  0  0  0
  3  4  4  0  0  0  0
  4  5  4  0  0  0  0
  5  6  4  0  0  0  0
  1  6  4  0  0  0  0
  4  7  1  0  0  0  0
  7  8  1  0  0  0  0
  8  9  1  0  0  0  0
  5  9  1  0  0  0  0
  9 10  2  0  0  0  0
  8 11  2  0  0  0  0
  1 12  1  0  0  0  0
 12 13  1  0  0  0  0
 12 14  2  0  0  0  0
M  END
>  <Compound Name> (70)
5-nitroisatin

>  <Formula> (70)
C8H3N2O4

>  <LogP> (70)
0.47

>  <LUMO> (70)
-1.786

>  <MOL_ID> (70)
70

>  <Activity> (70)
-0.94

$$$$
1,8-dinitro-9,10,11,12-tetrahydrobenzo[e]pyrene
csChmFindW1207992328
[comments]
 26 30  0     0  0  0  0  0  0  1 V2000
    4.8040    6.3432    0.0000 C   0  0  0  0  0  0  0  0  0  0
    3.5913    6.9961    0.0000 C   0  0  0  0  0  0  0  0  0  0
    2.3787    6.3432    0.0000 C   0  0  0  0  0  0  0  0  0  0
    2.3787    4.9439    0.0000 C   0  0  0  0  0  0  0  0  0  0
    3.5913    4.2443    0.0000 C   0  0  0  0  0  0  0  0  0  0
    4.8040    4.9439    0.0000 C   0  0  0  0  0  0  0  0  0  0
    3.5913    2.8451    0.0000 C   0  0  0  0  0  0  0  0  0  0
    4.8040    2.1455    0.0000 C   0  0  0  0  0  0  0  0  0  0
    6.0167    2.8451    0.0000 C   0  0  0  0  0  0  0  0  0  0
    6.0167    4.2443    0.0000 C   0  0  0  0  0  0  0  0  0  0
    2.3787    2.1455    0.0000 C   0  0  0  0  0  0  0  0  0  0
    2.3787    0.7463    0.0000 C   0  0  0  0  0  0  0  0  0  0
    3.5913   -0.0000    0.0000 C   0  0  0  0  0  0  0  0  0  0
    4.8040    0.7463    0.0000 C   0  0  0  0  0  0  0  0  0  0
    7.2293    2.1455    0.0000 C   0  0  0  0  0  0  0  0  0  0
    8.4420    2.8451    0.0000 C   0  0  0  0  0  0  0  0  0  0
    8.4420    4.2443    0.0000 C   0  0  0  0  0  0  0  0  0  0
    7.2293    4.9439    0.0000 C   0  0  0  0  0  0  0  0  0  0
    6.0167   -0.0000    0.0000 C   0  0  0  0  0  0  0  0  0  0
    7.2293    0.7463    0.0000 C   0  0  0  0  0  0  0  0  0  0
    7.2293    6.3432    0.0000 N   0  3  0  0  0  0  0  0  0  0
    8.4420    6.9961    0.0000 O   0  5  0  0  0  0  0  0  0  0
    6.0167    6.9961    0.0000 O   0  0  0  0  0  0  0  0  0  0
    1.1660    2.8451    0.0000 N   0  3  0  0  0  0  0  0  0  0
    1.1660    4.2443    0.0000 O   0  5  0  0  0  0  0  0  0  0
    0.0000    2.1455    0.0000 O   0  0  0  0  0  0  0  0  0  0
  1  2  1  0  0  0  0
  2  3  1  0  0  0  0
  3  4  1  0  0  0  0
  4  5  1  0  0  0  0
  5  6  4  0  0  0  0
  1  6  1  0  0  0  0
  5  7  4  0  0  0  0
  7  8  4  0  0  0  0
  8  9  4  0  0  0  0
  9 10  4  0  0  0  0
  6 10  4  0  0  0  0
  7 11  4  0  0  0  0
 11 12  4  0  0  0  0
 12 13  4  0  0  0  0
 13 14  4  0  0  0  0
  8 14  4  0  0  0  0
  9 15  4  0  0  0  0
 15 16  4  0  0  0  0
 16 17  4  0  0  0  0
 17 18  4  0  0  0  0
 10 18  4  0  0  0  0
 14 19  4  0  0  0  0
 19 20  4  0  0  0  0
 15 20  4  0  0  0  0
 18 21  1  0  0  0  0
 21 22  1  0  0  0  0
 21 23  2  0  0  0  0
 11 24  1  0  0  0  0
 24 25  1  0  0  0  0
 24 26  2  0  0  0  0
M  END
>  <Compound Name> (71)
1,8-dinitro-9,10,11,12-tetrahydrobenzo[e]pyrene

>  <Formula> (71)
C20H14N2O4

>  <LogP> (71)
6.01

>  <LUMO> (71)
-2.095

>  <MOL_ID> (71)
71

>  <Activity> (71)
2.19

$$$$
2-nitrofluorene
csChmFindW1207992328
[comments]
 16 18  0     0  0  0  0  0  0  1 V2000
   -0.0000    3.4980    0.0000 C   0  0  0  0  0  0  0  0  0  0
   -0.0000    2.0988    0.0000 C   0  0  0  0  0  0  0  0  0  0
    1.1660    1.3992    0.0000 C   0  0  0  0  0  0  0  0  0  0
    2.3787    2.0988    0.0000 C   0  0  0  0  0  0  0  0  0  0
    2.3787    3.4980    0.0000 C   0  0  0  0  0  0  0  0  0  0
    1.1660    4.1977    0.0000 C   0  0  0  0  0  0  0  0  0  0
    3.5913    1.3992    0.0000 C   0  0  0  0  0  0  0  0  0  0
    4.8040    2.0988    0.0000 C   0  0  0  0  0  0  0  0  0  0
    4.8040    3.4980    0.0000 C   0  0  0  0  0  0  0  0  0  0
    6.0166    1.3992    0.0000 C   0  0  0  0  0  0  0  0  0  0
    7.2293    2.0988    0.0000 C   0  0  0  0  0  0  0  0  0  0
    7.2293    3.4980    0.0000 C   0  0  0  0  0  0  0  0  0  0
    6.0166    4.1977    0.0000 C   0  0  0  0  0  0  0  0  0  0
    8.4420    1.3992    0.0000 N   0  3  0  0  0  0  0  0  0  0
    8.4420   -0.0000    0.0000 O   0  5  0  0  0  0  0  0  0  0
    9.6546    2.0988    0.0000 O   0  0  0  0  0  0  0  0  0  0
  1  2  4  0  0  0  0
  2  3  4  0  0  0  0
  3  4  4  0  0  0  0
  4  5  4  0  0  0  0
  5  6  4  0  0  0  0
  1  6  4  0  0  0  0
  4  7  1  0  0  0  0
  7  8  1  0  0  0  0
  8  9  4  0  0  0  0
  5  9  1  0  0  0  0
  8 10  4  0  0  0  0
 10 11  4  0  0  0  0
 11 12  4  0  0  0  0
 12 13  4  0  0  0  0
  9 13  4  0  0  0  0
 11 14  1  0  0  0  0
 14 15  1  0  0  0  0
 14 16  2  0  0  0  0
M  END
>  <Compound Name> (72)
2-nitrofluorene

>  <Formula> (72)
C13H9NO2

>  <LogP> (72)
3.37

>  <LUMO> (72)
-1.448

>  <MOL_ID> (72)
72

>  <Activity> (72)
1.43

$$$$
3-amino-2'-nitrobiphenyl
csChmFindW1207992328
[comments]
 16 17  0     0  0  0  0  0  0  1 V2000
    0.6533    2.4267    0.0000 C   0  0  0  0  0  0  0  0  0  0
   -0.0000    1.2133    0.0000 C   0  0  0  0  0  0  0  0  0  0
    0.6533    0.0000    0.0000 C   0  0  0  0  0  0  0  0  0  0
    2.0533    0.0000    0.0000 C   0  0  0  0  0  0  0  0  0  0
    2.7533    1.2133    0.0000 C   0  0  0  0  0  0  0  0  0  0
    2.0533    2.4267    0.0000 C   0  0  0  0  0  0  0  0  0  0
    4.1533    1.2133    0.0000 C   0  0  0  0  0  0  0  0  0  0
    4.8533    0.0000    0.0000 C   0  0  0  0  0  0  0  0  0  0
    6.2533    0.0000    0.0000 C   0  0  0  0  0  0  0  0  0  0
    6.9533    1.2133    0.0000 C   0  0  0  0  0  0  0  0  0  0
    6.2533    2.4267    0.0000 C   0  0  0  0  0  0  0  0  0  0
    4.8533    2.4267    0.0000 C   0  0  0  0  0  0  0  0  0  0
    6.9533    3.6400    0.0000 N   0  0  0  0  0  0  0  0  0  0
    2.7533    3.6400    0.0000 N   0  3  0  0  0  0  0  0  0  0
    4.1533    3.6400    0.0000 O   0  5  0  0  0  0  0  0  0  0
    2.0533    4.8067    0.0000 O   0  0  0  0  0  0  0  0  0  0
  1  2  4  0  0  0  0
  2  3  4  0  0  0  0
  3  4  4  0  0  0  0
  4  5  4  0  0  0  0
  5  6  4  0  0  0  0
  1  6  4  0  0  0  0
  5  7  1  0  0  0  0
  7  8  4  0  0  0  0
  8  9  4  0  0  0  0
  9 10  4  0  0  0  0
 10 11  4  0  0  0  0
 11 12  4  0  0  0  0
  7 12  4  0  0  0  0
 11 13  1  0  0  0  0
  6 14  1  0  0  0  0
 14 15  1  0  0  0  0
 14 16  2  0  0  0  0
M  END
>  <Compound Name> (73)
3-amino-2'-nitrobiphenyl

>  <Formula> (73)
C12H10N2O2

>  <LogP> (73)
2.68

>  <LUMO> (73)
-0.648

>  <MOL_ID> (73)
73

>  <Activity> (73)
-2

$$$$
3-nitrobenzo[k]fluoranthene
csChmFindW1207992328
[comments]
 23 27  0     0  0  0  0  0  0  1 V2000
    2.0753    2.7829    0.0000 C   0  0  0  0  0  0  0  0  0  0
    0.7075    2.7829    0.0000 C   0  0  0  0  0  0  0  0  0  0
   -0.0000    1.5565    0.0000 C   0  0  0  0  0  0  0  0  0  0
    0.7075    0.3773    0.0000 C   0  0  0  0  0  0  0  0  0  0
    2.0753    0.3773    0.0000 C   0  0  0  0  0  0  0  0  0  0
    2.8300    1.5565    0.0000 C   0  0  0  0  0  0  0  0  0  0
    2.8300    4.0564    0.0000 C   0  0  0  0  0  0  0  0  0  0
    2.0753    5.2355    0.0000 C   0  0  0  0  0  0  0  0  0  0
    0.7075    5.2355    0.0000 C   0  0  0  0  0  0  0  0  0  0
   -0.0000    4.0564    0.0000 C   0  0  0  0  0  0  0  0  0  0
    4.1979    2.1225    0.0000 C   0  0  0  0  0  0  0  0  0  0
    4.1979    3.4904    0.0000 C   0  0  0  0  0  0  0  0  0  0
    5.4242    1.4150    0.0000 C   0  0  0  0  0  0  0  0  0  0
    6.5562    2.1225    0.0000 C   0  0  0  0  0  0  0  0  0  0
    6.5562    3.4904    0.0000 C   0  0  0  0  0  0  0  0  0  0
    5.4242    4.1979    0.0000 C   0  0  0  0  0  0  0  0  0  0
    7.7826    1.4150    0.0000 C   0  0  0  0  0  0  0  0  0  0
    8.9617    2.1225    0.0000 C   0  0  0  0  0  0  0  0  0  0
    8.9617    3.4904    0.0000 C   0  0  0  0  0  0  0  0  0  0
    7.7826    4.1979    0.0000 C   0  0  0  0  0  0  0  0  0  0
   10.1881    1.4150    0.0000 N   0  3  0  0  0  0  0  0  0  0
   10.1881    0.0000    0.0000 O   0  5  0  0  0  0  0  0  0  0
   11.3673    2.1225    0.0000 O   0  0  0  0  0  0  0  0  0  0
  1  2  4  0  0  0  0
  2  3  4  0  0  0  0
  3  4  4  0  0  0  0
  4  5  4  0  0  0  0
  5  6  4  0  0  0  0
  1  6  4  0  0  0  0
  1  7  4  0  0  0  0
  7  8  4  0  0  0  0
  8  9  4  0  0  0  0
  9 10  4  0  0  0  0
  2 10  4  0  0  0  0
  6 11  1  0  0  0  0
  7 12  1  0  0  0  0
 11 12  4  0  0  0  0
 11 13  4  0  0  0  0
 13 14  4  0  0  0  0
 14 15  4  0  0  0  0
 15 16  4  0  0  0  0
 12 16  4  0  0  0  0
 14 17  4  0  0  0  0
 17 18  4  0  0  0  0
 18 19  4  0  0  0  0
 19 20  4  0  0  0  0
 15 20  4  0  0  0  0
 18 21  1  0  0  0  0
 21 22  1  0  0  0  0
 21 23  2  0  0  0  0
M  END
>  <Compound Name> (74)
3-nitrobenzo[k]fluoranthene

>  <Formula> (74)
C20H11NO2

>  <LogP> (74)
5.87

>  <LUMO> (74)
-1.689

>  <MOL_ID> (74)
74

>  <Activity> (74)
2.76

$$$$
4,4'-dinitrobiphenyl
csChmFindW1207992328
[comments]
 18 19  0     0  0  0  0  0  0  1 V2000
    2.7533    2.3800    0.0000 C   0  0  0  0  0  0  0  0  0  0
    2.0533    1.2133    0.0000 C   0  0  0  0  0  0  0  0  0  0
    2.7533   -0.0000    0.0000 C   0  0  0  0  0  0  0  0  0  0
    4.1533   -0.0000    0.0000 C   0  0  0  0  0  0  0  0  0  0
    4.8533    1.2133    0.0000 C   0  0  0  0  0  0  0  0  0  0
    4.1533    2.3800    0.0000 C   0  0  0  0  0  0  0  0  0  0
    6.2533    1.2133    0.0000 C   0  0  0  0  0  0  0  0  0  0
    6.9533   -0.0000    0.0000 C   0  0  0  0  0  0  0  0  0  0
    8.3533   -0.0000    0.0000 C   0  0  0  0  0  0  0  0  0  0
    9.0533    1.2133    0.0000 C   0  0  0  0  0  0  0  0  0  0
    8.3533    2.3800    0.0000 C   0  0  0  0  0  0  0  0  0  0
    6.9533    2.3800    0.0000 C   0  0  0  0  0  0  0  0  0  0
   10.4533    1.2133    0.0000 N   0  3  0  0  0  0  0  0  0  0
   11.1533   -0.0000    0.0000 O   0  5  0  0  0  0  0  0  0  0
   11.1533    2.3800    0.0000 O   0  0  0  0  0  0  0  0  0  0
    0.6533    1.2133    0.0000 N   0  3  0  0  0  0  0  0  0  0
    0.0000    2.3800    0.0000 O   0  5  0  0  0  0  0  0  0  0
    0.0000   -0.0000    0.0000 O   0  0  0  0  0  0  0  0  0  0
  1  2  4  0  0  0  0
  2  3  4  0  0  0  0
  3  4  4  0  0  0  0
  4  5  4  0  0  0  0
  5  6  4  0  0  0  0
  1  6  4  0  0  0  0
  5  7  1  0  0  0  0
  7  8  4  0  0  0  0
  8  9  4  0  0  0  0
  9 10  4  0  0  0  0
 10 11  4  0  0  0  0
 11 12  4  0  0  0  0
  7 12  4  0  0  0  0
 10 13  1  0  0  0  0
 13 14  1  0  0  0  0
 13 15  2  0  0  0  0
  2 16  1  0  0  0  0
 16 17  1  0  0  0  0
 16 18  2  0  0  0  0
M  END
>  <Compound Name> (75)
4,4'-dinitrobiphenyl

>  <Formula> (75)
C12H8N2O4

>  <LogP> (75)
3.52

>  <LUMO> (75)
-1.87

>  <MOL_ID> (75)
75

>  <Activity> (75)
1.17

$$$$
2-chloronitrobenzene
csChmFindW1207992328
[comments]
 10 10  0     0  0  0  0  0  0  1 V2000
    0.0000    1.2127    0.0000 C   0  0  0  0  0  0  0  0  0  0
    0.6530    0.0000    0.0000 C   0  0  0  0  0  0  0  0  0  0
    2.0522    0.0000    0.0000 C   0  0  0  0  0  0  0  0  0  0
    2.7518    1.2127    0.0000 C   0  0  0  0  0  0  0  0  0  0
    2.0522    2.4253    0.0000 C   0  0  0  0  0  0  0  0  0  0
    0.6530    2.4253    0.0000 C   0  0  0  0  0  0  0  0  0  0
    2.7518    3.6380    0.0000 Cl  0  0  0  0  0  0  0  0  0  0
    4.1510    1.2127    0.0000 N   0  3  0  0  0  0  0  0  0  0
    4.8506    0.0000    0.0000 O   0  5  0  0  0  0  0  0  0  0
    4.8506    2.4253    0.0000 O   0  0  0  0  0  0  0  0  0  0
  1  2  4  0  0  0  0
  2  3  4  0  0  0  0
  3  4  4  0  0  0  0
  4  5  4  0  0  0  0
  5  6  4  0  0  0  0
  1  6  4  0  0  0  0
  5  7  1  0  0  0  0
  4  8  1  0  0  0  0
  8  9  1  0  0  0  0
  8 10  2  0  0  0  0
M  END
>  <Compound Name> (76)
2-chloronitrobenzene

>  <Formula> (76)
C6H4ClNO2

>  <LogP> (76)
2.24

>  <LUMO> (76)
-1.069

>  <MOL_ID> (76)
76

>  <Activity> (76)
-1.72

$$$$
2-amino-3'-nitrobiphenyl
csChmFindW1207992328
[comments]
 16 17  0     0  0  0  0  0  0  1 V2000
    2.0522    2.4253    0.0000 C   0  0  0  0  0  0  0  0  0  0
    1.3526    1.2127    0.0000 C   0  0  0  0  0  0  0  0  0  0
    2.0522    0.0000    0.0000 C   0  0  0  0  0  0  0  0  0  0
    3.4514    0.0000    0.0000 C   0  0  0  0  0  0  0  0  0  0
    4.1510    1.2127    0.0000 C   0  0  0  0  0  0  0  0  0  0
    3.4514    2.4253    0.0000 C   0  0  0  0  0  0  0  0  0  0
    5.5502    1.2127    0.0000 C   0  0  0  0  0  0  0  0  0  0
    6.2498    0.0000    0.0000 C   0  0  0  0  0  0  0  0  0  0
    7.6491    0.0000    0.0000 C   0  0  0  0  0  0  0  0  0  0
    8.3487    1.2127    0.0000 C   0  0  0  0  0  0  0  0  0  0
    7.6491    2.4253    0.0000 C   0  0  0  0  0  0  0  0  0  0
    6.2498    2.4253    0.0000 C   0  0  0  0  0  0  0  0  0  0
    5.5502    3.6380    0.0000 N   0  0  0  2  0  0  0  0  0  0
    1.3526    3.6380    0.0000 N   0  3  0  0  0  0  0  0  0  0
    2.0522    4.8040    0.0000 O   0  5  0  0  0  0  0  0  0  0
   -0.0000    3.6380    0.0000 O   0  0  0  0  0  0  0  0  0  0
  1  2  4  0  0  0  0
  2  3  4  0  0  0  0
  3  4  4  0  0  0  0
  4  5  4  0  0  0  0
  5  6  4  0  0  0  0
  1  6  4  0  0  0  0
  5  7  1  0  0  0  0
  7  8  4  0  0  0  0
  8  9  4  0  0  0  0
  9 10  4  0  0  0  0
 10 11  4  0  0  0  0
 11 12  4  0  0  0  0
  7 12  4  0  0  0  0
 12 13  1  0  0  0  0
  1 14  1  0  0  0  0
 14 15  1  0  0  0  0
 14 16  2  0  0  0  0
M  END
>  <Compound Name> (77)
2-amino-3'-nitrobiphenyl

>  <Formula> (77)
C12H10N2O2

>  <LogP> (77)
2.68

>  <LUMO> (77)
-1.029

>  <MOL_ID> (77)
77

>  <Activity> (77)
-1.52

$$$$
2'-methyl-4-nitrobiphenyl
csChmFindW1207992328
[comments]
 16 17  0     0  0  0  0  0  0  1 V2000
    0.6530    2.4253    0.0000 C   0  0  0  0  0  0  0  0  0  0
   -0.0000    1.2127    0.0000 C   0  0  0  0  0  0  0  0  0  0
    0.6530    0.0000    0.0000 C   0  0  0  0  0  0  0  0  0  0
    2.0522    0.0000    0.0000 C   0  0  0  0  0  0  0  0  0  0
    2.7518    1.2127    0.0000 C   0  0  0  0  0  0  0  0  0  0
    2.0522    2.4253    0.0000 C   0  0  0  0  0  0  0  0  0  0
    4.1510    1.2127    0.0000 C   0  0  0  0  0  0  0  0  0  0
    4.8506    0.0000    0.0000 C   0  0  0  0  0  0  0  0  0  0
    6.2499    0.0000    0.0000 C   0  0  0  0  0  0  0  0  0  0
    6.9495    1.2127    0.0000 C   0  0  0  0  0  0  0  0  0  0
    6.2499    2.4253    0.0000 C   0  0  0  0  0  0  0  0  0  0
    4.8506    2.4253    0.0000 C   0  0  0  0  0  0  0  0  0  0
    2.7518    3.6380    0.0000 C   0  0  0  0  0  0  0  0  0  0
    8.3487    1.2127    0.0000 N   0  3  0  0  0  0  0  0  0  0
    9.0483    0.0000    0.0000 O   0  5  0  0  0  0  0  0  0  0
    9.0483    2.4253    0.0000 O   0  0  0  0  0  0  0  0  0  0
  1  2  4  0  0  0  0
  2  3  4  0  0  0  0
  3  4  4  0  0  0  0
  4  5  4  0  0  0  0
  5  6  4  0  0  0  0
  1  6  4  0  0  0  0
  5  7  1  0  0  0  0
  7  8  4  0  0  0  0
  8  9  4  0  0  0  0
  9 10  4  0  0  0  0
 10 11  4  0  0  0  0
 11 12  4  0  0  0  0
  7 12  4  0  0  0  0
  6 13  1  0  0  0  0
 10 14  1  0  0  0  0
 14 15  1  0  0  0  0
 14 16  2  0  0  0  0
M  END
>  <Compound Name> (78)
2'-methyl-4-nitrobiphenyl

>  <Formula> (78)
C13H11NO2

>  <LogP> (78)
4.27

>  <LUMO> (78)
-1.276

>  <MOL_ID> (78)
78

>  <Activity> (78)
-0.23

$$$$
2-nitrodibenzo-1,4-dioxin
csChmFindW1207992328
[comments]
 17 19  0     0  0  0  0  0  0  1 V2000
   -0.0000    2.0988    0.0000 C   0  0  0  0  0  0  0  0  0  0
   -0.0000    0.6996    0.0000 C   0  0  0  0  0  0  0  0  0  0
    1.1660    0.0000    0.0000 C   0  0  0  0  0  0  0  0  0  0
    2.3787    0.6996    0.0000 C   0  0  0  0  0  0  0  0  0  0
    2.3787    2.0988    0.0000 C   0  0  0  0  0  0  0  0  0  0
    1.1660    2.7985    0.0000 C   0  0  0  0  0  0  0  0  0  0
    3.5913    0.0000    0.0000 O   0  0  0  0  0  0  0  0  0  0
    4.8040    0.6996    0.0000 C   0  0  0  0  0  0  0  0  0  0
    4.8040    2.0988    0.0000 C   0  0  0  0  0  0  0  0  0  0
    3.5913    2.7985    0.0000 O   0  0  0  0  0  0  0  0  0  0
    6.0167    0.0000    0.0000 C   0  0  0  0  0  0  0  0  0  0
    7.2293    0.6996    0.0000 C   0  0  0  0  0  0  0  0  0  0
    7.2293    2.0988    0.0000 C   0  0  0  0  0  0  0  0  0  0
    6.0167    2.7985    0.0000 C   0  0  0  0  0  0  0  0  0  0
    8.4420    2.7985    0.0000 N   0  3  0  0  0  0  0  0  0  0
    9.6547    2.0988    0.0000 O   0  5  0  0  0  0  0  0  0  0
    8.4420    4.1977    0.0000 O   0  0  0  0  0  0  0  0  0  0
  1  2  4  0  0  0  0
  2  3  4  0  0  0  0
  3  4  4  0  0  0  0
  4  5  4  0  0  0  0
  5  6  4  0  0  0  0
  1  6  4  0  0  0  0
  4  7  1  0  0  0  0
  7  8  1  0  0  0  0
  8  9  4  0  0  0  0
  9 10  1  0  0  0  0
  5 10  1  0  0  0  0
  8 11  4  0  0  0  0
 11 12  4  0  0  0  0
 12 13  4  0  0  0  0
 13 14  4  0  0  0  0
  9 14  4  0  0  0  0
 13 15  1  0  0  0  0
 15 16  1  0  0  0  0
 15 17  2  0  0  0  0
M  END
>  <Compound Name> (79)
2-nitrodibenzo-1,4-dioxin

>  <Formula> (79)
C12H7NO4

>  <LogP> (79)
4.73

>  <LUMO> (79)
-1.26

>  <MOL_ID> (79)
79

>  <Activity> (79)
1.79

$$$$
7-nitrofluoranthene
csChmFindW1207992328
[comments]
 19 22  0     0  0  0  0  0  0  1 V2000
    3.6846    2.0988    0.0000 C   0  0  0  0  0  0  0  0  0  0
    3.6846    0.6996    0.0000 C   0  0  0  0  0  0  0  0  0  0
    4.8973    0.0000    0.0000 C   0  0  0  0  0  0  0  0  0  0
    6.1099    0.6996    0.0000 C   0  0  0  0  0  0  0  0  0  0
    6.1099    2.0988    0.0000 C   0  0  0  0  0  0  0  0  0  0
    4.8973    2.7984    0.0000 C   0  0  0  0  0  0  0  0  0  0
    2.4720    2.7984    0.0000 C   0  0  0  0  0  0  0  0  0  0
    1.2593    2.0988    0.0000 C   0  0  0  0  0  0  0  0  0  0
    1.2593    0.6996    0.0000 C   0  0  0  0  0  0  0  0  0  0
    2.4720    0.0000    0.0000 C   0  0  0  0  0  0  0  0  0  0
    4.4775    4.1977    0.0000 C   0  0  0  0  0  0  0  0  0  0
    2.8451    4.1977    0.0000 C   0  0  0  0  0  0  0  0  0  0
    5.3170    5.5969    0.0000 C   0  0  0  0  0  0  0  0  0  0
    4.4775    6.9961    0.0000 C   0  0  0  0  0  0  0  0  0  0
    2.8451    6.9961    0.0000 C   0  0  0  0  0  0  0  0  0  0
    2.0522    5.5969    0.0000 C   0  0  0  0  0  0  0  0  0  0
    0.6530    5.5969    0.0000 N   0  3  0  0  0  0  0  0  0  0
    0.0000    6.8095    0.0000 O   0  5  0  0  0  0  0  0  0  0
    0.0000    4.3842    0.0000 O   0  0  0  0  0  0  0  0  0  0
  1  2  4  0  0  0  0
  2  3  4  0  0  0  0
  3  4  4  0  0  0  0
  4  5  4  0  0  0  0
  5  6  4  0  0  0  0
  1  6  4  0  0  0  0
  1  7  4  0  0  0  0
  7  8  4  0  0  0  0
  8  9  4  0  0  0  0
  9 10  4  0  0  0  0
  2 10  4  0  0  0  0
  6 11  1  0  0  0  0
  7 12  1  0  0  0  0
 11 12  4  0  0  0  0
 11 13  4  0  0  0  0
 13 14  4  0  0  0  0
 14 15  4  0  0  0  0
 15 16  4  0  0  0  0
 12 16  4  0  0  0  0
 16 17  1  0  0  0  0
 17 18  1  0  0  0  0
 17 19  2  0  0  0  0
M  END
>  <Compound Name> (80)
7-nitrofluoranthene

>  <Formula> (80)
C16H9NO2

>  <LogP> (80)
4.69

>  <LUMO> (80)
-1.329

>  <MOL_ID> (80)
80

>  <Activity> (80)
1.87

$$$$
1,3-dinitrobenzene
csChmFindW1207992328
[comments]
 12 12  0     0  0  0  0  0  0  1 V2000
    1.3526    1.2127    0.0000 C   0  0  0  0  0  0  0  0  0  0
    2.0522    0.0000    0.0000 C   0  0  0  0  0  0  0  0  0  0
    3.4514    0.0000    0.0000 C   0  0  0  0  0  0  0  0  0  0
    4.1510    1.2127    0.0000 C   0  0  0  0  0  0  0  0  0  0
    3.4514    2.4253    0.0000 C   0  0  0  0  0  0  0  0  0  0
    2.0522    2.4253    0.0000 C   0  0  0  0  0  0  0  0  0  0
    5.5502    1.2127    0.0000 N   0  3  0  0  0  0  0  0  0  0
    6.2498    0.0000    0.0000 O   0  5  0  0  0  0  0  0  0  0
    6.2498    2.4253    0.0000 O   0  0  0  0  0  0  0  0  0  0
    1.3526    3.6380    0.0000 N   0  3  0  0  0  0  0  0  0  0
    2.0522    4.8040    0.0000 O   0  5  0  0  0  0  0  0  0  0
   -0.0000    3.6380    0.0000 O   0  0  0  0  0  0  0  0  0  0
  1  2  4  0  0  0  0
  2  3  4  0  0  0  0
  3  4  4  0  0  0  0
  4  5  4  0  0  0  0
  5  6  4  0  0  0  0
  1  6  4  0  0  0  0
  4  7  1  0  0  0  0
  7  8  1  0  0  0  0
  7  9  2  0  0  0  0
  6 10  1  0  0  0  0
 10 11  1  0  0  0  0
 10 12  2  0  0  0  0
M  END
>  <Compound Name> (81)
1,3-dinitrobenzene

>  <Formula> (81)
C6H4N2O4

>  <LogP> (81)
1.49

>  <LUMO> (81)
-1.937

>  <MOL_ID> (81)
81

>  <Activity> (81)
0.03

$$$$
1,2,4-trinitrofluoranthene
csChmFindW1207992328
[comments]
 25 28  0     0  0  0  0  0  0  1 V2000
    2.3787    4.1977    0.0000 C   0  0  0  0  0  0  0  0  0  0
    2.3787    2.7984    0.0000 C   0  0  0  0  0  0  0  0  0  0
    3.5914    2.0988    0.0000 C   0  0  0  0  0  0  0  0  0  0
    4.8040    2.7984    0.0000 C   0  0  0  0  0  0  0  0  0  0
    4.8040    4.1977    0.0000 C   0  0  0  0  0  0  0  0  0  0
    3.5914    4.8973    0.0000 C   0  0  0  0  0  0  0  0  0  0
    1.1660    4.8973    0.0000 C   0  0  0  0  0  0  0  0  0  0
   -0.0000    4.1977    0.0000 C   0  0  0  0  0  0  0  0  0  0
   -0.0000    2.7984    0.0000 C   0  0  0  0  0  0  0  0  0  0
    1.1660    2.0988    0.0000 C   0  0  0  0  0  0  0  0  0  0
    3.0783    6.2965    0.0000 C   0  0  0  0  0  0  0  0  0  0
    1.4925    6.2965    0.0000 C   0  0  0  0  0  0  0  0  0  0
    3.8712    7.6491    0.0000 C   0  0  0  0  0  0  0  0  0  0
    3.0783    9.0483    0.0000 C   0  0  0  0  0  0  0  0  0  0
    1.4925    9.0483    0.0000 C   0  0  0  0  0  0  0  0  0  0
    0.6996    7.6491    0.0000 C   0  0  0  0  0  0  0  0  0  0
    6.0167    4.8973    0.0000 N   0  3  0  0  0  0  0  0  0  0
    7.2293    4.1977    0.0000 O   0  5  0  0  0  0  0  0  0  0
    6.0167    6.2965    0.0000 O   0  0  0  0  0  0  0  0  0  0
    6.0167    2.0988    0.0000 N   0  3  0  0  0  0  0  0  0  0
    6.0167    0.6996    0.0000 O   0  5  0  0  0  0  0  0  0  0
    7.2293    2.7984    0.0000 O   0  0  0  0  0  0  0  0  0  0
    1.1660    0.6996    0.0000 N   0  3  0  0  0  0  0  0  0  0
   -0.0000    0.0000    0.0000 O   0  5  0  0  0  0  0  0  0  0
    2.3787    0.0000    0.0000 O   0  0  0  0  0  0  0  0  0  0
  1  2  4  0  0  0  0
  2  3  4  0  0  0  0
  3  4  4  0  0  0  0
  4  5  4  0  0  0  0
  5  6  4  0  0  0  0
  1  6  4  0  0  0  0
  1  7  4  0  0  0  0
  7  8  4  0  0  0  0
  8  9  4  0  0  0  0
  9 10  4  0  0  0  0
  2 10  4  0  0  0  0
  6 11  1  0  0  0  0
  7 12  1  0  0  0  0
 11 12  4  0  0  0  0
 11 13  4  0  0  0  0
 13 14  4  0  0  0  0
 14 15  4  0  0  0  0
 15 16  4  0  0  0  0
 12 16  4  0  0  0  0
  5 17  1  0  0  0  0
 17 18  1  0  0  0  0
 17 19  2  0  0  0  0
  4 20  1  0  0  0  0
 20 21  1  0  0  0  0
 20 22  2  0  0  0  0
 10 23  1  0  0  0  0
 23 24  1  0  0  0  0
 23 25  2  0  0  0  0
M  END
>  <Compound Name> (82)
1,2,4-trinitrofluoranthene

>  <Formula> (82)
C16H7N3O6

>  <LogP> (82)
4.18

>  <LUMO> (82)
-2.71

>  <MOL_ID> (82)
82

>  <Activity> (82)
3.56

$$$$
2-nitrocarbazole
csChmFindW1207992328
[comments]
 16 18  0     0  0  0  0  0  0  1 V2000
   -0.0000    3.4980    0.0000 C   0  0  0  0  0  0  0  0  0  0
   -0.0000    2.0988    0.0000 C   0  0  0  0  0  0  0  0  0  0
    1.1660    1.3992    0.0000 C   0  0  0  0  0  0  0  0  0  0
    2.3787    2.0988    0.0000 C   0  0  0  0  0  0  0  0  0  0
    2.3787    3.4980    0.0000 C   0  0  0  0  0  0  0  0  0  0
    1.1660    4.1977    0.0000 C   0  0  0  0  0  0  0  0  0  0
    3.5913    1.3992    0.0000 N   0  0  0  1  0  0  0  0  0  0
    4.8040    2.0988    0.0000 C   0  0  0  0  0  0  0  0  0  0
    4.8040    3.4980    0.0000 C   0  0  0  0  0  0  0  0  0  0
    6.0166    1.3992    0.0000 C   0  0  0  0  0  0  0  0  0  0
    7.2293    2.0988    0.0000 C   0  0  0  0  0  0  0  0  0  0
    7.2293    3.4980    0.0000 C   0  0  0  0  0  0  0  0  0  0
    6.0166    4.1977    0.0000 C   0  0  0  0  0  0  0  0  0  0
    8.4420    1.3992    0.0000 N   0  3  0  0  0  0  0  0  0  0
    8.4420   -0.0000    0.0000 O   0  5  0  0  0  0  0  0  0  0
    9.6546    2.0988    0.0000 O   0  0  0  0  0  0  0  0  0  0
  1  2  4  0  0  0  0
  2  3  4  0  0  0  0
  3  4  4  0  0  0  0
  4  5  4  0  0  0  0
  5  6  4  0  0  0  0
  1  6  4  0  0  0  0
  4  7  4  0  0  0  0
  7  8  4  0  0  0  0
  8  9  4  0  0  0  0
  5  9  4  0  0  0  0
  8 10  4  0  0  0  0
 10 11  4  0  0  0  0
 11 12  4  0  0  0  0
 12 13  4  0  0  0  0
  9 13  4  0  0  0  0
 11 14  1  0  0  0  0
 14 15  1  0  0  0  0
 14 16  2  0  0  0  0
M  END
>  <Compound Name> (83)
2-nitrocarbazole

>  <Formula> (83)
C12H7N2O2

>  <LogP> (83)
3.51

>  <LUMO> (83)
-1.145

>  <MOL_ID> (83)
83

>  <Activity> (83)
1.01

$$$$
4-nitrostyrene
csChmFindW1207992328
[comments]
 11 11  0     0  0  0  0  0  0  1 V2000
    2.0533    1.2133    0.0000 C   0  0  0  0  0  0  0  0  0  0
    2.7533   -0.0000    0.0000 C   0  0  0  0  0  0  0  0  0  0
    4.1533   -0.0000    0.0000 C   0  0  0  0  0  0  0  0  0  0
    4.8533    1.2133    0.0000 C   0  0  0  0  0  0  0  0  0  0
    4.1533    2.3800    0.0000 C   0  0  0  0  0  0  0  0  0  0
    2.7533    2.3800    0.0000 C   0  0  0  0  0  0  0  0  0  0
    6.2533    1.2133    0.0000 C   0  0  0  0  0  0  0  0  0  0
    6.9533    2.3800    0.0000 C   0  0  0  0  0  0  0  0  0  0
    0.6533    1.2133    0.0000 N   0  3  0  0  0  0  0  0  0  0
    0.0000    2.3800    0.0000 O   0  5  0  0  0  0  0  0  0  0
    0.0000   -0.0000    0.0000 O   0  0  0  0  0  0  0  0  0  0
  1  2  4  0  0  0  0
  2  3  4  0  0  0  0
  3  4  4  0  0  0  0
  4  5  4  0  0  0  0
  5  6  4  0  0  0  0
  1  6  4  0  0  0  0
  4  7  1  0  0  0  0
  7  8  2  0  0  0  0
  1  9  1  0  0  0  0
  9 10  1  0  0  0  0
  9 11  2  0  0  0  0
M  END
>  <Compound Name> (84)
4-nitrostyrene

>  <Formula> (84)
C8H7NO2

>  <LogP> (84)
2.61

>  <LUMO> (84)
-1.256

>  <MOL_ID> (84)
84

>  <Activity> (84)
-1.3

$$$$
6-nitrobenz[e]aceanthrylene
csChmFindW1207992328
[comments]
 23 27  0     0  0  0  0  0  0  1 V2000
    3.5913    4.1977    0.0000 C   0  0  0  0  0  0  0  0  0  0
    3.5913    2.7985    0.0000 C   0  0  0  0  0  0  0  0  0  0
    4.8040    2.0988    0.0000 C   0  0  0  0  0  0  0  0  0  0
    6.0167    2.7985    0.0000 C   0  0  0  0  0  0  0  0  0  0
    6.0167    4.1977    0.0000 C   0  0  0  0  0  0  0  0  0  0
    4.8040    4.8973    0.0000 C   0  0  0  0  0  0  0  0  0  0
    2.3787    4.8973    0.0000 C   0  0  0  0  0  0  0  0  0  0
    1.1660    4.1977    0.0000 C   0  0  0  0  0  0  0  0  0  0
    1.1660    2.7985    0.0000 C   0  0  0  0  0  0  0  0  0  0
    2.3787    2.0988    0.0000 C   0  0  0  0  0  0  0  0  0  0
    4.8040    6.2965    0.0000 C   0  0  0  0  0  0  0  0  0  0
    2.3787    6.2965    0.0000 C   0  0  0  0  0  0  0  0  0  0
    7.2293    2.0988    0.0000 C   0  0  0  0  0  0  0  0  0  0
    8.4420    2.7985    0.0000 C   0  0  0  0  0  0  0  0  0  0
    8.4420    4.1977    0.0000 C   0  0  0  0  0  0  0  0  0  0
    7.2293    4.8973    0.0000 C   0  0  0  0  0  0  0  0  0  0
   -0.0000    2.0988    0.0000 C   0  0  0  0  0  0  0  0  0  0
   -0.0000    0.6996    0.0000 C   0  0  0  0  0  0  0  0  0  0
    1.1660   -0.0000    0.0000 C   0  0  0  0  0  0  0  0  0  0
    2.3787    0.6996    0.0000 C   0  0  0  0  0  0  0  0  0  0
    1.3992    7.2760    0.0000 N   0  3  0  0  0  0  0  0  0  0
    1.7723    8.5819    0.0000 O   0  5  0  0  0  0  0  0  0  0
    0.0466    6.9029    0.0000 O   0  0  0  0  0  0  0  0  0  0
  1  2  4  0  0  0  0
  2  3  4  0  0  0  0
  3  4  4  0  0  0  0
  4  5  4  0  0  0  0
  5  6  4  0  0  0  0
  1  6  4  0  0  0  0
  1  7  4  0  0  0  0
  7  8  4  0  0  0  0
  8  9  4  0  0  0  0
  9 10  4  0  0  0  0
  2 10  4  0  0  0  0
  6 11  1  0  0  0  0
  7 12  1  0  0  0  0
 11 12  2  0  0  0  0
  4 13  4  0  0  0  0
 13 14  4  0  0  0  0
 14 15  4  0  0  0  0
 15 16  4  0  0  0  0
  5 16  4  0  0  0  0
  9 17  4  0  0  0  0
 17 18  4  0  0  0  0
 18 19  4  0  0  0  0
 19 20  4  0  0  0  0
 10 20  4  0  0  0  0
 12 21  1  0  0  0  0
 21 22  1  0  0  0  0
 21 23  2  0  0  0  0
M  END
>  <Compound Name> (85)
6-nitrobenz[e]aceanthrylene

>  <Formula> (85)
C20H11NO2

>  <LogP> (85)
5.07

>  <LUMO> (85)
-2.113

>  <MOL_ID> (85)
85

>  <Activity> (85)
0.04

$$$$
5-nitrobenz[k]acephenanthrylene
csChmFindW1207992328
[comments]
 23 27  0     0  0  0  0  0  0  1 V2000
    2.3800    6.3000    0.0000 C   0  0  0  0  0  0  0  0  0  0
    2.3800    4.9000    0.0000 C   0  0  0  0  0  0  0  0  0  0
    3.5933    4.2000    0.0000 C   0  0  0  0  0  0  0  0  0  0
    4.8067    4.9000    0.0000 C   0  0  0  0  0  0  0  0  0  0
    4.8067    6.3000    0.0000 C   0  0  0  0  0  0  0  0  0  0
    3.5933    7.0000    0.0000 C   0  0  0  0  0  0  0  0  0  0
    1.1667    7.0000    0.0000 C   0  0  0  0  0  0  0  0  0  0
    0.0000    6.3000    0.0000 C   0  0  0  0  0  0  0  0  0  0
    0.0000    4.9000    0.0000 C   0  0  0  0  0  0  0  0  0  0
    1.1667    4.2000    0.0000 C   0  0  0  0  0  0  0  0  0  0
    3.5933    8.4000    0.0000 C   0  0  0  0  0  0  0  0  0  0
    1.1667    8.4000    0.0000 C   0  0  0  0  0  0  0  0  0  0
    3.5933    2.8000    0.0000 C   0  0  0  0  0  0  0  0  0  0
    4.8067    2.1000    0.0000 C   0  0  0  0  0  0  0  0  0  0
    5.9733    2.8000    0.0000 C   0  0  0  0  0  0  0  0  0  0
    5.9733    4.2000    0.0000 C   0  0  0  0  0  0  0  0  0  0
    4.8067    0.7000    0.0000 C   0  0  0  0  0  0  0  0  0  0
    5.9733    0.0000    0.0000 C   0  0  0  0  0  0  0  0  0  0
    7.1867    0.7000    0.0000 C   0  0  0  0  0  0  0  0  0  0
    7.1867    2.1000    0.0000 C   0  0  0  0  0  0  0  0  0  0
    4.5733    9.3800    0.0000 N   0  3  0  0  0  0  0  0  0  0
    5.9267    9.0067    0.0000 O   0  5  0  0  0  0  0  0  0  0
    4.2000   10.6867    0.0000 O   0  0  0  0  0  0  0  0  0  0
  1  2  4  0  0  0  0
  2  3  4  0  0  0  0
  3  4  4  0  0  0  0
  4  5  4  0  0  0  0
  5  6  4  0  0  0  0
  1  6  4  0  0  0  0
  1  7  4  0  0  0  0
  7  8  4  0  0  0  0
  8  9  4  0  0  0  0
  9 10  4  0  0  0  0
  2 10  4  0  0  0  0
  6 11  1  0  0  0  0
  7 12  1  0  0  0  0
 11 12  2  0  0  0  0
  3 13  4  0  0  0  0
 13 14  4  0  0  0  0
 14 15  4  0  0  0  0
 15 16  4  0  0  0  0
  4 16  4  0  0  0  0
 14 17  4  0  0  0  0
 17 18  4  0  0  0  0
 18 19  4  0  0  0  0
 19 20  4  0  0  0  0
 15 20  4  0  0  0  0
 11 21  1  0  0  0  0
 21 22  1  0  0  0  0
 21 23  2  0  0  0  0
M  END
>  <Compound Name> (86)
5-nitrobenz[k]acephenanthrylene

>  <Formula> (86)
C20H11NO2

>  <LogP> (86)
5.07

>  <LUMO> (86)
-1.918

>  <MOL_ID> (86)
86

>  <Activity> (86)
0.92

$$$$
2-nitrodibenzofuran
csChmFindW1207992328
[comments]
 16 18  0     0  0  0  0  0  0  1 V2000
   -0.0000    2.0988    0.0000 C   0  0  0  0  0  0  0  0  0  0
   -0.0000    0.6996    0.0000 C   0  0  0  0  0  0  0  0  0  0
    1.1660    0.0000    0.0000 C   0  0  0  0  0  0  0  0  0  0
    2.3787    0.6996    0.0000 C   0  0  0  0  0  0  0  0  0  0
    2.3787    2.0988    0.0000 C   0  0  0  0  0  0  0  0  0  0
    1.1660    2.7985    0.0000 C   0  0  0  0  0  0  0  0  0  0
    3.5913    0.0000    0.0000 O   0  0  0  0  0  0  0  0  0  0
    4.8040    0.6996    0.0000 C   0  0  0  0  0  0  0  0  0  0
    4.8040    2.0988    0.0000 C   0  0  0  0  0  0  0  0  0  0
    6.0167    0.0000    0.0000 C   0  0  0  0  0  0  0  0  0  0
    7.2293    0.6996    0.0000 C   0  0  0  0  0  0  0  0  0  0
    7.2293    2.0988    0.0000 C   0  0  0  0  0  0  0  0  0  0
    6.0167    2.7985    0.0000 C   0  0  0  0  0  0  0  0  0  0
    8.4420    2.7985    0.0000 N   0  3  0  0  0  0  0  0  0  0
    9.6080    2.0988    0.0000 O   0  5  0  0  0  0  0  0  0  0
    8.4420    4.1977    0.0000 O   0  0  0  0  0  0  0  0  0  0
  1  2  4  0  0  0  0
  2  3  4  0  0  0  0
  3  4  4  0  0  0  0
  4  5  4  0  0  0  0
  5  6  4  0  0  0  0
  1  6  4  0  0  0  0
  4  7  4  0  0  0  0
  7  8  4  0  0  0  0
  8  9  4  0  0  0  0
  5  9  4  0  0  0  0
  8 10  4  0  0  0  0
 10 11  4  0  0  0  0
 11 12  4  0  0  0  0
 12 13  4  0  0  0  0
  9 13  4  0  0  0  0
 12 14  1  0  0  0  0
 14 15  1  0  0  0  0
 14 16  2  0  0  0  0
M  END
>  <Compound Name> (87)
2-nitrodibenzofuran

>  <Formula> (87)
C12H7NO3

>  <LogP> (87)
3.83

>  <LUMO> (87)
-1.488

>  <MOL_ID> (87)
87

>  <Activity> (87)
1.64

$$$$
4-nitroacetophenone
csChmFindW1207992328
[comments]
 12 12  0     0  0  0  0  0  0  1 V2000
    2.0533    1.2133    0.0000 C   0  0  0  0  0  0  0  0  0  0
    2.7533    0.0000    0.0000 C   0  0  0  0  0  0  0  0  0  0
    4.1533    0.0000    0.0000 C   0  0  0  0  0  0  0  0  0  0
    4.8533    1.2133    0.0000 C   0  0  0  0  0  0  0  0  0  0
    4.1533    2.4267    0.0000 C   0  0  0  0  0  0  0  0  0  0
    2.7533    2.4267    0.0000 C   0  0  0  0  0  0  0  0  0  0
    6.2533    1.2133    0.0000 C   0  0  0  0  0  0  0  0  0  0
    6.2533    2.6133    0.0000 O   0  0  0  0  0  0  0  0  0  0
    7.6534    1.2133    0.0000 C   0  0  0  0  0  0  0  0  0  0
    0.6533    1.2133    0.0000 N   0  3  0  0  0  0  0  0  0  0
    0.0000    2.4267    0.0000 O   0  5  0  0  0  0  0  0  0  0
    0.0000    0.0000    0.0000 O   0  0  0  0  0  0  0  0  0  0
  1  2  4  0  0  0  0
  2  3  4  0  0  0  0
  3  4  4  0  0  0  0
  4  5  4  0  0  0  0
  5  6  4  0  0  0  0
  1  6  4  0  0  0  0
  4  7  1  0  0  0  0
  7  8  2  0  0  0  0
  7  9  1  0  0  0  0
  1 10  1  0  0  0  0
 10 11  1  0  0  0  0
 10 12  2  0  0  0  0
M  END
>  <Compound Name> (88)
4-nitroacetophenone

>  <Formula> (88)
C8H7NO3

>  <LogP> (88)
1.53

>  <LUMO> (88)
-1.605

>  <MOL_ID> (88)
88

>  <Activity> (88)
-1.54

$$$$
1-methyl-7-nitroindazole
csChmFindW1207992328
[comments]
 13 14  0     0  0  0  0  0  0  1 V2000
   -0.0000    4.2000    0.0000 C   0  0  0  0  0  0  0  0  0  0
   -0.0000    2.8000    0.0000 C   0  0  0  0  0  0  0  0  0  0
    1.1667    2.1000    0.0000 C   0  0  0  0  0  0  0  0  0  0
    2.3800    2.8000    0.0000 C   0  0  0  0  0  0  0  0  0  0
    2.3800    4.2000    0.0000 C   0  0  0  0  0  0  0  0  0  0
    1.1667    4.8533    0.0000 C   0  0  0  0  0  0  0  0  0  0
    3.7333    2.3800    0.0000 N   0  0  0  0  0  0  0  0  0  0
    4.5267    3.5000    0.0000 N   0  0  0  0  0  0  0  0  0  0
    3.7333    4.6200    0.0000 C   0  0  0  0  0  0  0  0  0  0
    4.0600    1.0267    0.0000 C   0  0  0  0  0  0  0  0  0  0
    1.1667    0.7000    0.0000 N   0  3  0  0  0  0  0  0  0  0
   -0.0000   -0.0000    0.0000 O   0  5  0  0  0  0  0  0  0  0
    2.3800   -0.0000    0.0000 O   0  0  0  0  0  0  0  0  0  0
  1  2  4  0  0  0  0
  2  3  4  0  0  0  0
  3  4  4  0  0  0  0
  4  5  4  0  0  0  0
  5  6  4  0  0  0  0
  1  6  4  0  0  0  0
  4  7  4  0  0  0  0
  7  8  4  0  0  0  0
  8  9  4  0  0  0  0
  5  9  4  0  0  0  0
  7 10  1  0  0  0  0
  3 11  1  0  0  0  0
 11 12  1  0  0  0  0
 11 13  2  0  0  0  0
M  END
>  <Compound Name> (89)
1-methyl-7-nitroindazole

>  <Formula> (89)
C8H8N3O2

>  <LogP> (89)
1.77

>  <LUMO> (89)
-1.028

>  <MOL_ID> (89)
89

>  <Activity> (89)
-1

$$$$
1-nitrobenzo[e]pyrene
csChmFindW1207992328
[comments]
 23 27  0     0  0  0  0  0  0  1 V2000
    0.0000    6.3000    0.0000 C   0  0  0  0  0  0  0  0  0  0
    0.0000    4.9000    0.0000 C   0  0  0  0  0  0  0  0  0  0
    1.1667    4.2000    0.0000 C   0  0  0  0  0  0  0  0  0  0
    2.3800    4.9000    0.0000 C   0  0  0  0  0  0  0  0  0  0
    2.3800    6.3000    0.0000 C   0  0  0  0  0  0  0  0  0  0
    1.1667    6.9533    0.0000 C   0  0  0  0  0  0  0  0  0  0
    1.1667    2.8000    0.0000 C   0  0  0  0  0  0  0  0  0  0
    2.3800    2.1000    0.0000 C   0  0  0  0  0  0  0  0  0  0
    3.5933    2.8000    0.0000 C   0  0  0  0  0  0  0  0  0  0
    3.5933    4.2000    0.0000 C   0  0  0  0  0  0  0  0  0  0
    0.0000    2.1000    0.0000 C   0  0  0  0  0  0  0  0  0  0
    0.0000    0.7000    0.0000 C   0  0  0  0  0  0  0  0  0  0
    1.1667   -0.0000    0.0000 C   0  0  0  0  0  0  0  0  0  0
    2.3800    0.7000    0.0000 C   0  0  0  0  0  0  0  0  0  0
    4.8066    2.1000    0.0000 C   0  0  0  0  0  0  0  0  0  0
    6.0200    2.8000    0.0000 C   0  0  0  0  0  0  0  0  0  0
    6.0200    4.2000    0.0000 C   0  0  0  0  0  0  0  0  0  0
    4.8066    4.9000    0.0000 C   0  0  0  0  0  0  0  0  0  0
    3.5933   -0.0000    0.0000 C   0  0  0  0  0  0  0  0  0  0
    4.8066    0.7000    0.0000 C   0  0  0  0  0  0  0  0  0  0
    4.8066    6.3000    0.0000 N   0  3  0  0  0  0  0  0  0  0
    6.0200    6.9533    0.0000 O   0  5  0  0  0  0  0  0  0  0
    3.5933    6.9533    0.0000 O   0  0  0  0  0  0  0  0  0  0
  1  2  4  0  0  0  0
  2  3  4  0  0  0  0
  3  4  4  0  0  0  0
  4  5  4  0  0  0  0
  5  6  4  0  0  0  0
  1  6  4  0  0  0  0
  3  7  4  0  0  0  0
  7  8  4  0  0  0  0
  8  9  4  0  0  0  0
  9 10  4  0  0  0  0
  4 10  4  0  0  0  0
  7 11  4  0  0  0  0
 11 12  4  0  0  0  0
 12 13  4  0  0  0  0
 13 14  4  0  0  0  0
  8 14  4  0  0  0  0
  9 15  4  0  0  0  0
 15 16  4  0  0  0  0
 16 17  4  0  0  0  0
 17 18  4  0  0  0  0
 10 18  4  0  0  0  0
 14 19  4  0  0  0  0
 19 20  4  0  0  0  0
 15 20  4  0  0  0  0
 18 21  1  0  0  0  0
 21 22  1  0  0  0  0
 21 23  2  0  0  0  0
M  END
>  <Compound Name> (90)
1-nitrobenzo[e]pyrene

>  <Formula> (90)
C20H11NO2

>  <LogP> (90)
5.87

>  <LUMO> (90)
-1.62

>  <MOL_ID> (90)
90

>  <Activity> (90)
1.59

$$$$
trans-7,8-dihydro-3-nitrobenzo[a]pyrene-7,8-diol
csChmFindW1207992328
[comments]
 25 29  0     0  0  0  0  0  0  1 V2000
    1.1194    3.4981    0.0000 C   0  0  0  0  0  0  0  0  0  0
    1.1194    2.0988    0.0000 C   0  0  0  0  0  0  0  0  0  0
    2.3320    1.3992    0.0000 C   0  0  0  0  0  0  0  0  0  0
    3.5447    2.0988    0.0000 C   0  0  0  0  0  0  0  0  0  0
    3.5447    3.4981    0.0000 C   0  0  0  0  0  0  0  0  0  0
    2.3320    4.1977    0.0000 C   0  0  0  0  0  0  0  0  0  0
    4.7573    1.3992    0.0000 C   0  0  0  0  0  0  0  0  0  0
    5.9700    2.0988    0.0000 C   0  0  0  0  0  0  0  0  0  0
    5.9700    3.4981    0.0000 C   0  0  0  0  0  0  0  0  0  0
    4.7573    4.1977    0.0000 C   0  0  0  0  0  0  0  0  0  0
    7.1827    1.3992    0.0000 C   0  0  0  0  0  0  0  0  0  0
    8.3953    2.0988    0.0000 C   0  0  0  0  0  0  0  0  0  0
    8.3953    3.4981    0.0000 C   0  0  0  0  0  0  0  0  0  0
    7.1827    4.1977    0.0000 C   0  0  0  0  0  0  0  0  0  0
    7.1827    5.5969    0.0000 C   0  0  0  0  0  0  0  0  0  0
    5.9700    6.2965    0.0000 C   0  0  0  0  0  0  0  0  0  0
    4.7573    5.5969    0.0000 C   0  0  0  0  0  0  0  0  0  0
    9.6080    4.1977    0.0000 C   0  0  0  0  0  0  0  0  0  0
    9.6080    5.5969    0.0000 C   0  0  0  0  0  0  0  0  0  0
    8.3953    6.2965    0.0000 C   0  0  0  0  0  0  0  0  0  0
    0.0000    1.3992    0.0000 O   0  0  0  0  0  0  0  0  0  0
    2.3320    0.0000    0.0000 O   0  0  0  0  0  0  0  0  0  0
   10.8207    3.4981    0.0000 N   0  3  0  0  0  0  0  0  0  0
   10.8207    2.0988    0.0000 O   0  5  0  0  0  0  0  0  0  0
   12.0333    4.1977    0.0000 O   0  0  0  0  0  0  0  0  0  0
  1  2  1  0  0  0  0
  2  3  1  0  0  0  0
  3  4  1  0  0  0  0
  4  5  4  0  0  0  0
  5  6  1  0  0  0  0
  1  6  2  0  0  0  0
  4  7  4  0  0  0  0
  7  8  4  0  0  0  0
  8  9  4  0  0  0  0
  9 10  4  0  0  0  0
  5 10  4  0  0  0  0
  8 11  4  0  0  0  0
 11 12  4  0  0  0  0
 12 13  4  0  0  0  0
 13 14  4  0  0  0  0
  9 14  4  0  0  0  0
 14 15  4  0  0  0  0
 15 16  4  0  0  0  0
 16 17  4  0  0  0  0
 10 17  4  0  0  0  0
 13 18  4  0  0  0  0
 18 19  4  0  0  0  0
 19 20  4  0  0  0  0
 15 20  4  0  0  0  0
  2 21  1  6  0  0  0
  3 22  1  1  0  0  0
 18 23  1  0  0  0  0
 23 24  1  0  0  0  0
 23 25  2  0  0  0  0
M  END
>  <Compound Name> (91)
trans-7,8-dihydro-3-nitrobenzo[a]pyrene-7,8-diol

>  <Formula> (91)
C20H13NO4

>  <LogP> (91)
3.01

>  <LUMO> (91)
-2.032

>  <MOL_ID> (91)
91

>  <Activity> (91)
3.08

$$$$
2-nitro-4,5,9,10-tetrahydropyrene
csChmFindW1207992328
[comments]
 19 22  0     0  0  0  0  0  0  1 V2000
    1.0261   -0.0000    0.0000 C   0  0  0  0  0  0  0  0  0  0
    2.2388    0.6996    0.0000 C   0  0  0  0  0  0  0  0  0  0
    2.2388    2.0988    0.0000 C   0  0  0  0  0  0  0  0  0  0
    1.0261    2.7984    0.0000 C   0  0  0  0  0  0  0  0  0  0
    0.0000    2.0988    0.0000 C   0  0  0  0  0  0  0  0  0  0
    0.0000    0.6996    0.0000 C   0  0  0  0  0  0  0  0  0  0
    3.4514    2.7984    0.0000 C   0  0  0  0  0  0  0  0  0  0
    3.4514    4.1977    0.0000 C   0  0  0  0  0  0  0  0  0  0
    2.2388    4.8973    0.0000 C   0  0  0  0  0  0  0  0  0  0
    1.0261    4.1977    0.0000 C   0  0  0  0  0  0  0  0  0  0
    3.4514   -0.0000    0.0000 C   0  0  0  0  0  0  0  0  0  0
    4.6641    0.6996    0.0000 C   0  0  0  0  0  0  0  0  0  0
    4.6641    2.0988    0.0000 C   0  0  0  0  0  0  0  0  0  0
    5.8767    2.7984    0.0000 C   0  0  0  0  0  0  0  0  0  0
    5.8767    4.1977    0.0000 C   0  0  0  0  0  0  0  0  0  0
    4.6641    4.8973    0.0000 C   0  0  0  0  0  0  0  0  0  0
    7.0894    4.8973    0.0000 N   0  3  0  0  0  0  0  0  0  0
    8.3021    4.1977    0.0000 O   0  5  0  0  0  0  0  0  0  0
    7.0894    6.1099    0.0000 O   0  0  0  0  0  0  0  0  0  0
  1  2  4  0  0  0  0
  2  3  4  0  0  0  0
  3  4  4  0  0  0  0
  4  5  4  0  0  0  0
  5  6  4  0  0  0  0
  1  6  4  0  0  0  0
  3  7  1  0  0  0  0
  7  8  4  0  0  0  0
  8  9  1  0  0  0  0
  9 10  1  0  0  0  0
  4 10  1  0  0  0  0
  2 11  1  0  0  0  0
 11 12  1  0  0  0  0
 12 13  1  0  0  0  0
  7 13  4  0  0  0  0
 13 14  4  0  0  0  0
 14 15  4  0  0  0  0
 15 16  4  0  0  0  0
  8 16  4  0  0  0  0
 15 17  1  0  0  0  0
 17 18  1  0  0  0  0
 17 19  2  0  0  0  0
M  END
>  <Compound Name> (92)
2-nitro-4,5,9,10-tetrahydropyrene

>  <Formula> (92)
C16H13NO2

>  <LogP> (92)
5.28

>  <LUMO> (92)
-1.208

>  <MOL_ID> (92)
92

>  <Activity> (92)
1.58

$$$$
3-nitrobenzo[e]pyrene
csChmFindW1207992328
[comments]
 23 27  0     0  0  0  0  0  0  1 V2000
    2.3800    6.3466    0.0000 C   0  0  0  0  0  0  0  0  0  0
    1.1667    7.0000    0.0000 C   0  0  0  0  0  0  0  0  0  0
   -0.0000    6.3466    0.0000 C   0  0  0  0  0  0  0  0  0  0
   -0.0000    4.9466    0.0000 C   0  0  0  0  0  0  0  0  0  0
    1.1667    4.2467    0.0000 C   0  0  0  0  0  0  0  0  0  0
    2.3800    4.9466    0.0000 C   0  0  0  0  0  0  0  0  0  0
    1.1667    2.8467    0.0000 C   0  0  0  0  0  0  0  0  0  0
    2.3800    2.1467    0.0000 C   0  0  0  0  0  0  0  0  0  0
    3.5933    2.8467    0.0000 C   0  0  0  0  0  0  0  0  0  0
    3.5933    4.2467    0.0000 C   0  0  0  0  0  0  0  0  0  0
   -0.0000    2.1467    0.0000 C   0  0  0  0  0  0  0  0  0  0
   -0.0000    0.7467    0.0000 C   0  0  0  0  0  0  0  0  0  0
    1.1667   -0.0000    0.0000 C   0  0  0  0  0  0  0  0  0  0
    2.3800    0.7467    0.0000 C   0  0  0  0  0  0  0  0  0  0
    4.8066    2.1467    0.0000 C   0  0  0  0  0  0  0  0  0  0
    6.0200    2.8467    0.0000 C   0  0  0  0  0  0  0  0  0  0
    6.0200    4.2467    0.0000 C   0  0  0  0  0  0  0  0  0  0
    4.8066    4.9466    0.0000 C   0  0  0  0  0  0  0  0  0  0
    3.5933   -0.0000    0.0000 C   0  0  0  0  0  0  0  0  0  0
    4.8066    0.7467    0.0000 C   0  0  0  0  0  0  0  0  0  0
    7.2333    2.1467    0.0000 N   0  3  0  0  0  0  0  0  0  0
    7.2333    0.7467    0.0000 O   0  5  0  0  0  0  0  0  0  0
    8.4466    2.8467    0.0000 O   0  0  0  0  0  0  0  0  0  0
  1  2  4  0  0  0  0
  2  3  4  0  0  0  0
  3  4  4  0  0  0  0
  4  5  4  0  0  0  0
  5  6  4  0  0  0  0
  1  6  4  0  0  0  0
  5  7  4  0  0  0  0
  7  8  4  0  0  0  0
  8  9  4  0  0  0  0
  9 10  4  0  0  0  0
  6 10  4  0  0  0  0
  7 11  4  0  0  0  0
 11 12  4  0  0  0  0
 12 13  4  0  0  0  0
 13 14  4  0  0  0  0
  8 14  4  0  0  0  0
  9 15  4  0  0  0  0
 15 16  4  0  0  0  0
 16 17  4  0  0  0  0
 17 18  4  0  0  0  0
 10 18  4  0  0  0  0
 14 19  4  0  0  0  0
 19 20  4  0  0  0  0
 15 20  4  0  0  0  0
 16 21  1  0  0  0  0
 21 22  1  0  0  0  0
 21 23  2  0  0  0  0
M  END
>  <Compound Name> (93)
3-nitrobenzo[e]pyrene

>  <Formula> (93)
C20H11NO2

>  <LogP> (93)
5.87

>  <LUMO> (93)
-1.729

>  <MOL_ID> (93)
93

>  <Activity> (93)
2.95

$$$$
4-nitropyrene
csChmFindW1207992328
[comments]
 19 22  0     0  0  0  0  0  0  1 V2000
    0.0000    3.4981    0.0000 C   0  0  0  0  0  0  0  0  0  0
    0.0000    2.0988    0.0000 C   0  0  0  0  0  0  0  0  0  0
    1.1660    1.3992    0.0000 C   0  0  0  0  0  0  0  0  0  0
    2.3787    2.0988    0.0000 C   0  0  0  0  0  0  0  0  0  0
    2.3787    3.4981    0.0000 C   0  0  0  0  0  0  0  0  0  0
    1.1660    4.1977    0.0000 C   0  0  0  0  0  0  0  0  0  0
    3.5913    4.1977    0.0000 C   0  0  0  0  0  0  0  0  0  0
    3.5913    5.5969    0.0000 C   0  0  0  0  0  0  0  0  0  0
    2.3787    6.2965    0.0000 C   0  0  0  0  0  0  0  0  0  0
    1.1660    5.5969    0.0000 C   0  0  0  0  0  0  0  0  0  0
    3.5913    1.3992    0.0000 C   0  0  0  0  0  0  0  0  0  0
    4.8040    2.0988    0.0000 C   0  0  0  0  0  0  0  0  0  0
    4.8040    3.4981    0.0000 C   0  0  0  0  0  0  0  0  0  0
    5.9700    4.1977    0.0000 C   0  0  0  0  0  0  0  0  0  0
    5.9700    5.5969    0.0000 C   0  0  0  0  0  0  0  0  0  0
    4.8040    6.2965    0.0000 C   0  0  0  0  0  0  0  0  0  0
    6.0167    1.3992    0.0000 N   0  3  0  0  0  0  0  0  0  0
    6.0167   -0.0000    0.0000 O   0  5  0  0  0  0  0  0  0  0
    7.2293    2.0988    0.0000 O   0  0  0  0  0  0  0  0  0  0
  1  2  4  0  0  0  0
  2  3  4  0  0  0  0
  3  4  4  0  0  0  0
  4  5  4  0  0  0  0
  5  6  4  0  0  0  0
  1  6  4  0  0  0  0
  5  7  4  0  0  0  0
  7  8  4  0  0  0  0
  8  9  4  0  0  0  0
  9 10  4  0  0  0  0
  6 10  4  0  0  0  0
  4 11  4  0  0  0  0
 11 12  4  0  0  0  0
 12 13  4  0  0  0  0
  7 13  4  0  0  0  0
 13 14  4  0  0  0  0
 14 15  4  0  0  0  0
 15 16  4  0  0  0  0
  8 16  4  0  0  0  0
 12 17  1  0  0  0  0
 17 18  1  0  0  0  0
 17 19  2  0  0  0  0
M  END
>  <Compound Name> (94)
4-nitropyrene

>  <Formula> (94)
C16H9NO2

>  <LogP> (94)
4.69

>  <LUMO> (94)
-1.585

>  <MOL_ID> (94)
94

>  <Activity> (94)
3.39

$$$$
2,3,5-trinitronaphthalene
csChmFindW1207992328
[comments]
 19 20  0     0  0  0  0  0  0  1 V2000
   -0.0000    4.1977    0.0000 C   0  0  0  0  0  0  0  0  0  0
   -0.0000    2.7985    0.0000 C   0  0  0  0  0  0  0  0  0  0
    1.1660    2.0988    0.0000 C   0  0  0  0  0  0  0  0  0  0
    2.3787    2.7985    0.0000 C   0  0  0  0  0  0  0  0  0  0
    2.3787    4.1977    0.0000 C   0  0  0  0  0  0  0  0  0  0
    1.1660    4.8973    0.0000 C   0  0  0  0  0  0  0  0  0  0
    3.5913    2.0988    0.0000 C   0  0  0  0  0  0  0  0  0  0
    4.8040    2.7985    0.0000 C   0  0  0  0  0  0  0  0  0  0
    4.8040    4.1977    0.0000 C   0  0  0  0  0  0  0  0  0  0
    3.5913    4.8973    0.0000 C   0  0  0  0  0  0  0  0  0  0
    6.0167    4.8973    0.0000 N   0  3  0  0  0  0  0  0  0  0
    7.2293    4.1977    0.0000 O   0  5  0  0  0  0  0  0  0  0
    6.0167    6.2965    0.0000 O   0  0  0  0  0  0  0  0  0  0
    6.0167    2.0988    0.0000 N   0  3  0  0  0  0  0  0  0  0
    6.0167    0.6996    0.0000 O   0  5  0  0  0  0  0  0  0  0
    7.2293    2.7985    0.0000 O   0  0  0  0  0  0  0  0  0  0
    1.1660    0.6996    0.0000 N   0  3  0  0  0  0  0  0  0  0
   -0.0000   -0.0000    0.0000 O   0  5  0  0  0  0  0  0  0  0
    2.3787   -0.0000    0.0000 O   0  0  0  0  0  0  0  0  0  0
  1  2  4  0  0  0  0
  2  3  4  0  0  0  0
  3  4  4  0  0  0  0
  4  5  4  0  0  0  0
  5  6  4  0  0  0  0
  1  6  4  0  0  0  0
  4  7  4  0  0  0  0
  7  8  4  0  0  0  0
  8  9  4  0  0  0  0
  9 10  4  0  0  0  0
  5 10  4  0  0  0  0
  9 11  1  0  0  0  0
 11 12  1  0  0  0  0
 11 13  2  0  0  0  0
  8 14  1  0  0  0  0
 14 15  1  0  0  0  0
 14 16  2  0  0  0  0
  3 17  1  0  0  0  0
 17 18  1  0  0  0  0
 17 19  2  0  0  0  0
M  END
>  <Compound Name> (95)
2,3,5-trinitronaphthalene

>  <Formula> (95)
C10H5N3O6

>  <LogP> (95)
2.55

>  <LUMO> (95)
-2.434

>  <MOL_ID> (95)
95

>  <Activity> (95)
1.51

$$$$
1,3,6-trinitropyrene
csChmFindW1207992328
[comments]
 25 28  0     0  0  0  0  0  0  1 V2000
    1.1660    2.0989    0.0000 C   0  0  0  0  0  0  0  0  0  0
    2.3787    2.7985    0.0000 C   0  0  0  0  0  0  0  0  0  0
    2.3787    4.1977    0.0000 C   0  0  0  0  0  0  0  0  0  0
    1.1660    4.8973    0.0000 C   0  0  0  0  0  0  0  0  0  0
   -0.0000    4.1977    0.0000 C   0  0  0  0  0  0  0  0  0  0
   -0.0000    2.7985    0.0000 C   0  0  0  0  0  0  0  0  0  0
    3.5914    4.8973    0.0000 C   0  0  0  0  0  0  0  0  0  0
    3.5914    6.2966    0.0000 C   0  0  0  0  0  0  0  0  0  0
    2.3787    6.9962    0.0000 C   0  0  0  0  0  0  0  0  0  0
    1.1660    6.2966    0.0000 C   0  0  0  0  0  0  0  0  0  0
    3.5914    2.0989    0.0000 C   0  0  0  0  0  0  0  0  0  0
    4.8040    2.7985    0.0000 C   0  0  0  0  0  0  0  0  0  0
    4.8040    4.1977    0.0000 C   0  0  0  0  0  0  0  0  0  0
    6.0167    4.8973    0.0000 C   0  0  0  0  0  0  0  0  0  0
    6.0167    6.2966    0.0000 C   0  0  0  0  0  0  0  0  0  0
    4.8040    6.9962    0.0000 C   0  0  0  0  0  0  0  0  0  0
    4.8040    8.3954    0.0000 N   0  3  0  0  0  0  0  0  0  0
    6.0167    9.0950    0.0000 O   0  5  0  0  0  0  0  0  0  0
    3.5914    9.0950    0.0000 O   0  0  0  0  0  0  0  0  0  0
    7.2294    4.1977    0.0000 N   0  3  0  0  0  0  0  0  0  0
    7.2294    2.7985    0.0000 O   0  5  0  0  0  0  0  0  0  0
    8.4420    4.8973    0.0000 O   0  0  0  0  0  0  0  0  0  0
    1.1660    0.6996    0.0000 N   0  3  0  0  0  0  0  0  0  0
   -0.0000    0.0000    0.0000 O   0  5  0  0  0  0  0  0  0  0
    2.3787    0.0000    0.0000 O   0  0  0  0  0  0  0  0  0  0
  1  2  4  0  0  0  0
  2  3  4  0  0  0  0
  3  4  4  0  0  0  0
  4  5  4  0  0  0  0
  5  6  4  0  0  0  0
  1  6  4  0  0  0  0
  3  7  4  0  0  0  0
  7  8  4  0  0  0  0
  8  9  4  0  0  0  0
  9 10  4  0  0  0  0
  4 10  4  0  0  0  0
  2 11  4  0  0  0  0
 11 12  4  0  0  0  0
 12 13  4  0  0  0  0
  7 13  4  0  0  0  0
 13 14  4  0  0  0  0
 14 15  4  0  0  0  0
 15 16  4  0  0  0  0
  8 16  4  0  0  0  0
 16 17  1  0  0  0  0
 17 18  1  0  0  0  0
 17 19  2  0  0  0  0
 14 20  1  0  0  0  0
 20 21  1  0  0  0  0
 20 22  2  0  0  0  0
  1 23  1  0  0  0  0
 23 24  1  0  0  0  0
 23 25  2  0  0  0  0
M  END
>  <Compound Name> (96)
1,3,6-trinitropyrene

>  <Formula> (96)
C16H7N3O6

>  <LogP> (96)
4.18

>  <LUMO> (96)
-2.871

>  <MOL_ID> (96)
96

>  <Activity> (96)
4.99

$$$$
2-methoxy-7-nitrofluorene
csChmFindW1207992328
[comments]
 18 20  0     0  0  0  0  0  0  1 V2000
    2.3320    3.4981    0.0000 C   0  0  0  0  0  0  0  0  0  0
    2.3320    2.0988    0.0000 C   0  0  0  0  0  0  0  0  0  0
    3.5447    1.3992    0.0000 C   0  0  0  0  0  0  0  0  0  0
    4.7574    2.0988    0.0000 C   0  0  0  0  0  0  0  0  0  0
    4.7574    3.4981    0.0000 C   0  0  0  0  0  0  0  0  0  0
    3.5447    4.1510    0.0000 C   0  0  0  0  0  0  0  0  0  0
    5.9700    1.3992    0.0000 C   0  0  0  0  0  0  0  0  0  0
    7.1827    2.0988    0.0000 C   0  0  0  0  0  0  0  0  0  0
    7.1827    3.4981    0.0000 C   0  0  0  0  0  0  0  0  0  0
    8.3953    1.3992    0.0000 C   0  0  0  0  0  0  0  0  0  0
    9.6080    2.0988    0.0000 C   0  0  0  0  0  0  0  0  0  0
    9.6080    3.4981    0.0000 C   0  0  0  0  0  0  0  0  0  0
    8.3953    4.1510    0.0000 C   0  0  0  0  0  0  0  0  0  0
   10.8207    1.3992    0.0000 O   0  0  0  0  0  0  0  0  0  0
   12.0333    2.0988    0.0000 C   0  0  0  0  0  0  0  0  0  0
    1.1194    1.3992    0.0000 N   0  3  0  0  0  0  0  0  0  0
    0.0000    2.0988    0.0000 O   0  5  0  0  0  0  0  0  0  0
    1.1194   -0.0000    0.0000 O   0  0  0  0  0  0  0  0  0  0
  1  2  4  0  0  0  0
  2  3  4  0  0  0  0
  3  4  4  0  0  0  0
  4  5  4  0  0  0  0
  5  6  4  0  0  0  0
  1  6  4  0  0  0  0
  4  7  1  0  0  0  0
  7  8  1  0  0  0  0
  8  9  4  0  0  0  0
  5  9  1  0  0  0  0
  8 10  4  0  0  0  0
 10 11  4  0  0  0  0
 11 12  4  0  0  0  0
 12 13  4  0  0  0  0
  9 13  4  0  0  0  0
 11 14  1  0  0  0  0
 14 15  1  0  0  0  0
  2 16  1  0  0  0  0
 16 17  1  0  0  0  0
 16 18  2  0  0  0  0
M  END
>  <Compound Name> (97)
2-methoxy-7-nitrofluorene

>  <Formula> (97)
C14H11NO3

>  <LogP> (97)
3.95

>  <LUMO> (97)
-1.361

>  <MOL_ID> (97)
97

>  <Activity> (97)
2.79

$$$$
5-nitroisoquinoline
csChmFindW1207992328
[comments]
 13 14  0     0  0  0  0  0  0  1 V2000
    1.1660    0.0000    0.0000 C   0  0  0  0  0  0  0  0  0  0
    2.3787    0.6996    0.0000 C   0  0  0  0  0  0  0  0  0  0
    2.3787    2.0989    0.0000 C   0  0  0  0  0  0  0  0  0  0
    1.1660    2.7985    0.0000 C   0  0  0  0  0  0  0  0  0  0
   -0.0000    2.0989    0.0000 C   0  0  0  0  0  0  0  0  0  0
   -0.0000    0.6996    0.0000 C   0  0  0  0  0  0  0  0  0  0
    3.5914    0.0000    0.0000 C   0  0  0  0  0  0  0  0  0  0
    4.8040    0.6996    0.0000 N   0  0  0  0  0  0  0  0  0  0
    4.8040    2.0989    0.0000 C   0  0  0  0  0  0  0  0  0  0
    3.5914    2.7985    0.0000 C   0  0  0  0  0  0  0  0  0  0
    1.1660    4.1977    0.0000 N   0  3  0  0  0  0  0  0  0  0
    2.3787    4.8507    0.0000 O   0  5  0  0  0  0  0  0  0  0
   -0.0000    4.8507    0.0000 O   0  0  0  0  0  0  0  0  0  0
  1  2  4  0  0  0  0
  2  3  4  0  0  0  0
  3  4  4  0  0  0  0
  4  5  4  0  0  0  0
  5  6  4  0  0  0  0
  1  6  4  0  0  0  0
  2  7  4  0  0  0  0
  7  8  4  0  0  0  0
  8  9  4  0  0  0  0
  9 10  4  0  0  0  0
  3 10  4  0  0  0  0
  4 11  1  0  0  0  0
 11 12  1  0  0  0  0
 11 13  2  0  0  0  0
M  END
>  <Compound Name> (98)
5-nitroisoquinoline

>  <Formula> (98)
C9H6N2O2

>  <LogP> (98)
1.65

>  <LUMO> (98)
-1.598

>  <MOL_ID> (98)
98

>  <Activity> (98)
-1.55

$$$$
1-nitroacenaphthylene
csChmFindW1207992328
[comments]
 15 17  0     0  0  0  0  0  0  1 V2000
    3.4981    2.0988    0.0000 C   0  0  0  0  0  0  0  0  0  0
    3.4981    0.6996    0.0000 C   0  0  0  0  0  0  0  0  0  0
    4.7107   -0.0000    0.0000 C   0  0  0  0  0  0  0  0  0  0
    5.9234    0.6996    0.0000 C   0  0  0  0  0  0  0  0  0  0
    5.9234    2.0988    0.0000 C   0  0  0  0  0  0  0  0  0  0
    4.7107    2.7985    0.0000 C   0  0  0  0  0  0  0  0  0  0
    2.2854    2.7985    0.0000 C   0  0  0  0  0  0  0  0  0  0
    1.0727    2.0988    0.0000 C   0  0  0  0  0  0  0  0  0  0
    1.0727    0.6996    0.0000 C   0  0  0  0  0  0  0  0  0  0
    2.2854   -0.0000    0.0000 C   0  0  0  0  0  0  0  0  0  0
    4.7107    4.1977    0.0000 C   0  0  0  0  0  0  0  0  0  0
    2.2854    4.1977    0.0000 C   0  0  0  0  0  0  0  0  0  0
    1.3059    5.1771    0.0000 N   0  3  0  0  0  0  0  0  0  0
    1.6791    6.4831    0.0000 O   0  5  0  0  0  0  0  0  0  0
    0.0000    4.8040    0.0000 O   0  0  0  0  0  0  0  0  0  0
  1  2  4  0  0  0  0
  2  3  4  0  0  0  0
  3  4  4  0  0  0  0
  4  5  4  0  0  0  0
  5  6  4  0  0  0  0
  1  6  4  0  0  0  0
  1  7  4  0  0  0  0
  7  8  4  0  0  0  0
  8  9  4  0  0  0  0
  9 10  4  0  0  0  0
  2 10  4  0  0  0  0
  6 11  1  0  0  0  0
  7 12  1  0  0  0  0
 11 12  2  0  0  0  0
 12 13  1  0  0  0  0
 13 14  1  0  0  0  0
 13 15  2  0  0  0  0
M  END
>  <Compound Name> (99)
1-nitroacenaphthylene

>  <Formula> (99)
C12H7NO2

>  <LogP> (99)
2.72

>  <LUMO> (99)
-2.159

>  <MOL_ID> (99)
99

>  <Activity> (99)
1.77

$$$$
3-amino-3'-nitrobiphenyl
csChmFindW1207992328
[comments]
 16 17  0     0  0  0  0  0  0  1 V2000
    0.6533    2.4266    0.0000 C   0  0  0  0  0  0  0  0  0  0
    0.0000    1.2133    0.0000 C   0  0  0  0  0  0  0  0  0  0
    0.6533   -0.0000    0.0000 C   0  0  0  0  0  0  0  0  0  0
    2.0533   -0.0000    0.0000 C   0  0  0  0  0  0  0  0  0  0
    2.7533    1.2133    0.0000 C   0  0  0  0  0  0  0  0  0  0
    2.0533    2.4266    0.0000 C   0  0  0  0  0  0  0  0  0  0
    4.1533    1.2133    0.0000 C   0  0  0  0  0  0  0  0  0  0
    4.8533   -0.0000    0.0000 C   0  0  0  0  0  0  0  0  0  0
    6.2533   -0.0000    0.0000 C   0  0  0  0  0  0  0  0  0  0
    6.9533    1.2133    0.0000 C   0  0  0  0  0  0  0  0  0  0
    6.2533    2.4266    0.0000 C   0  0  0  0  0  0  0  0  0  0
    4.8533    2.4266    0.0000 C   0  0  0  0  0  0  0  0  0  0
    0.0000    3.6400    0.0000 N   0  0  0  2  0  0  0  0  0  0
    6.9533    3.6400    0.0000 N   0  3  0  0  0  0  0  0  0  0
    8.3533    3.6400    0.0000 O   0  5  0  0  0  0  0  0  0  0
    6.2533    4.8066    0.0000 O   0  0  0  0  0  0  0  0  0  0
  1  2  4  0  0  0  0
  2  3  4  0  0  0  0
  3  4  4  0  0  0  0
  4  5  4  0  0  0  0
  5  6  4  0  0  0  0
  1  6  4  0  0  0  0
  5  7  1  0  0  0  0
  7  8  4  0  0  0  0
  8  9  4  0  0  0  0
  9 10  4  0  0  0  0
 10 11  4  0  0  0  0
 11 12  4  0  0  0  0
  7 12  4  0  0  0  0
  1 13  1  0  0  0  0
 11 14  1  0  0  0  0
 14 15  1  0  0  0  0
 14 16  2  0  0  0  0
M  END
>  <Compound Name> (100)
3-amino-3'-nitrobiphenyl

>  <Formula> (100)
C12H10N2O2

>  <LogP> (100)
2.68

>  <LUMO> (100)
-1.034

>  <MOL_ID> (100)
100

>  <Activity> (100)
-1.7

$$$$
3-nitro-9,10,11,12-tetrahydrobenzo[e]pyrene
csChmFindW1207992328
[comments]
 23 27  0     0  0  0  0  0  0  1 V2000
    2.3800    6.3466    0.0000 C   0  0  0  0  0  0  0  0  0  0
    1.1667    7.0000    0.0000 C   0  0  0  0  0  0  0  0  0  0
   -0.0000    6.3466    0.0000 C   0  0  0  0  0  0  0  0  0  0
   -0.0000    4.9466    0.0000 C   0  0  0  0  0  0  0  0  0  0
    1.1667    4.2467    0.0000 C   0  0  0  0  0  0  0  0  0  0
    2.3800    4.9466    0.0000 C   0  0  0  0  0  0  0  0  0  0
    1.1667    2.8467    0.0000 C   0  0  0  0  0  0  0  0  0  0
    2.3800    2.1467    0.0000 C   0  0  0  0  0  0  0  0  0  0
    3.5933    2.8467    0.0000 C   0  0  0  0  0  0  0  0  0  0
    3.5933    4.2467    0.0000 C   0  0  0  0  0  0  0  0  0  0
   -0.0000    2.1467    0.0000 C   0  0  0  0  0  0  0  0  0  0
   -0.0000    0.7467    0.0000 C   0  0  0  0  0  0  0  0  0  0
    1.1667   -0.0000    0.0000 C   0  0  0  0  0  0  0  0  0  0
    2.3800    0.7467    0.0000 C   0  0  0  0  0  0  0  0  0  0
    4.8066    2.1467    0.0000 C   0  0  0  0  0  0  0  0  0  0
    6.0200    2.8467    0.0000 C   0  0  0  0  0  0  0  0  0  0
    6.0200    4.2467    0.0000 C   0  0  0  0  0  0  0  0  0  0
    4.8066    4.9466    0.0000 C   0  0  0  0  0  0  0  0  0  0
    3.5933   -0.0000    0.0000 C   0  0  0  0  0  0  0  0  0  0
    4.8066    0.7467    0.0000 C   0  0  0  0  0  0  0  0  0  0
    7.2333    2.1467    0.0000 N   0  3  0  0  0  0  0  0  0  0
    7.2333    0.7467    0.0000 O   0  5  0  0  0  0  0  0  0  0
    8.4466    2.8467    0.0000 O   0  0  0  0  0  0  0  0  0  0
  1  2  1  0  0  0  0
  2  3  1  0  0  0  0
  3  4  1  0  0  0  0
  4  5  1  0  0  0  0
  5  6  4  0  0  0  0
  1  6  1  0  0  0  0
  5  7  4  0  0  0  0
  7  8  4  0  0  0  0
  8  9  4  0  0  0  0
  9 10  4  0  0  0  0
  6 10  4  0  0  0  0
  7 11  4  0  0  0  0
 11 12  4  0  0  0  0
 12 13  4  0  0  0  0
 13 14  4  0  0  0  0
  8 14  4  0  0  0  0
  9 15  4  0  0  0  0
 15 16  4  0  0  0  0
 16 17  4  0  0  0  0
 17 18  4  0  0  0  0
 10 18  4  0  0  0  0
 14 19  4  0  0  0  0
 19 20  4  0  0  0  0
 15 20  4  0  0  0  0
 16 21  1  0  0  0  0
 21 22  1  0  0  0  0
 21 23  2  0  0  0  0
M  END
>  <Compound Name> (101)
3-nitro-9,10,11,12-tetrahydrobenzo[e]pyrene

>  <Formula> (101)
C20H15NO2

>  <LogP> (101)
6.26

>  <LUMO> (101)
-1.598

>  <MOL_ID> (101)
101

>  <Activity> (101)
0.78

$$$$
2,4,5,7-tetranitro-9-fluorenone
csChmFindW1207992328
[comments]
 26 28  0     0  0  0  0  0  0  1 V2000
    2.3787    3.4981    0.0000 C   0  0  0  0  0  0  0  0  0  0
    2.3787    2.0988    0.0000 C   0  0  0  0  0  0  0  0  0  0
    3.5913    1.3992    0.0000 C   0  0  0  0  0  0  0  0  0  0
    4.8040    2.0988    0.0000 C   0  0  0  0  0  0  0  0  0  0
    4.8040    3.4981    0.0000 C   0  0  0  0  0  0  0  0  0  0
    3.5913    4.1977    0.0000 C   0  0  0  0  0  0  0  0  0  0
    6.0167    1.3992    0.0000 C   0  0  0  0  0  0  0  0  0  0
    7.2293    2.0988    0.0000 C   0  0  0  0  0  0  0  0  0  0
    7.2293    3.4981    0.0000 C   0  0  0  0  0  0  0  0  0  0
    8.4420    1.3992    0.0000 C   0  0  0  0  0  0  0  0  0  0
    9.6546    2.0988    0.0000 C   0  0  0  0  0  0  0  0  0  0
    9.6546    3.4981    0.0000 C   0  0  0  0  0  0  0  0  0  0
    8.4420    4.1977    0.0000 C   0  0  0  0  0  0  0  0  0  0
    6.0167   -0.0000    0.0000 O   0  0  0  0  0  0  0  0  0  0
   10.8673    1.3992    0.0000 N   0  3  0  0  0  0  0  0  0  0
   10.8673   -0.0000    0.0000 O   0  5  0  0  0  0  0  0  0  0
   12.0800    2.0988    0.0000 O   0  0  0  0  0  0  0  0  0  0
    8.4420    5.5969    0.0000 N   0  3  0  0  0  0  0  0  0  0
    9.6546    6.2965    0.0000 O   0  5  0  0  0  0  0  0  0  0
    7.2293    6.2965    0.0000 O   0  0  0  0  0  0  0  0  0  0
    3.5913    5.5969    0.0000 N   0  3  0  0  0  0  0  0  0  0
    4.8040    6.2965    0.0000 O   0  5  0  0  0  0  0  0  0  0
    2.3787    6.2965    0.0000 O   0  0  0  0  0  0  0  0  0  0
    1.1660    1.3992    0.0000 N   0  3  0  0  0  0  0  0  0  0
    0.0000    2.0988    0.0000 O   0  5  0  0  0  0  0  0  0  0
    1.1660   -0.0000    0.0000 O   0  0  0  0  0  0  0  0  0  0
  1  2  4  0  0  0  0
  2  3  4  0  0  0  0
  3  4  4  0  0  0  0
  4  5  4  0  0  0  0
  5  6  4  0  0  0  0
  1  6  4  0  0  0  0
  4  7  1  0  0  0  0
  7  8  1  0  0  0  0
  8  9  4  0  0  0  0
  5  9  1  0  0  0  0
  8 10  4  0  0  0  0
 10 11  4  0  0  0  0
 11 12  4  0  0  0  0
 12 13  4  0  0  0  0
  9 13  4  0  0  0  0
  7 14  2  0  0  0  0
 11 15  1  0  0  0  0
 15 16  1  0  0  0  0
 15 17  2  0  0  0  0
 13 18  1  0  0  0  0
 18 19  1  0  0  0  0
 18 20  2  0  0  0  0
  6 21  1  0  0  0  0
 21 22  1  0  0  0  0
 21 23  2  0  0  0  0
  2 24  1  0  0  0  0
 24 25  1  0  0  0  0
 24 26  2  0  0  0  0
M  END
>  <Compound Name> (102)
2,4,5,7-tetranitro-9-fluorenone

>  <Formula> (102)
C13H4N4O9

>  <LogP> (102)
2.4

>  <LUMO> (102)
-3.172

>  <MOL_ID> (102)
102

>  <Activity> (102)
2.93

$$$$
2-nitropyrene
csChmFindW1207992328
[comments]
 19 22  0     0  0  0  0  0  0  1 V2000
   -0.0000    2.0988    0.0000 C   0  0  0  0  0  0  0  0  0  0
   -0.0000    0.6996    0.0000 C   0  0  0  0  0  0  0  0  0  0
    1.1660   -0.0000    0.0000 C   0  0  0  0  0  0  0  0  0  0
    2.3787    0.6996    0.0000 C   0  0  0  0  0  0  0  0  0  0
    2.3787    2.0988    0.0000 C   0  0  0  0  0  0  0  0  0  0
    1.1660    2.7985    0.0000 C   0  0  0  0  0  0  0  0  0  0
    3.5913   -0.0000    0.0000 C   0  0  0  0  0  0  0  0  0  0
    4.8040    0.6996    0.0000 C   0  0  0  0  0  0  0  0  0  0
    4.8040    2.0988    0.0000 C   0  0  0  0  0  0  0  0  0  0
    3.5913    2.7985    0.0000 C   0  0  0  0  0  0  0  0  0  0
    3.5913    4.1977    0.0000 C   0  0  0  0  0  0  0  0  0  0
    2.3787    4.8973    0.0000 C   0  0  0  0  0  0  0  0  0  0
    1.1660    4.1977    0.0000 C   0  0  0  0  0  0  0  0  0  0
    6.0167    2.7985    0.0000 C   0  0  0  0  0  0  0  0  0  0
    6.0167    4.1977    0.0000 C   0  0  0  0  0  0  0  0  0  0
    4.8040    4.8973    0.0000 C   0  0  0  0  0  0  0  0  0  0
    7.2293    4.8973    0.0000 N   0  3  0  0  0  0  0  0  0  0
    8.4420    4.1977    0.0000 O   0  5  0  0  0  0  0  0  0  0
    7.2293    6.2965    0.0000 O   0  0  0  0  0  0  0  0  0  0
  1  2  4  0  0  0  0
  2  3  4  0  0  0  0
  3  4  4  0  0  0  0
  4  5  4  0  0  0  0
  5  6  4  0  0  0  0
  1  6  4  0  0  0  0
  4  7  4  0  0  0  0
  7  8  4  0  0  0  0
  8  9  4  0  0  0  0
  9 10  4  0  0  0  0
  5 10  4  0  0  0  0
 10 11  4  0  0  0  0
 11 12  4  0  0  0  0
 12 13  4  0  0  0  0
  6 13  4  0  0  0  0
  9 14  4  0  0  0  0
 14 15  4  0  0  0  0
 15 16  4  0  0  0  0
 11 16  4  0  0  0  0
 15 17  1  0  0  0  0
 17 18  1  0  0  0  0
 17 19  2  0  0  0  0
M  END
>  <Compound Name> (103)
2-nitropyrene

>  <Formula> (103)
C16H9NO2

>  <LogP> (103)
4.69

>  <LUMO> (103)
-1.487

>  <MOL_ID> (103)
103

>  <Activity> (103)
3.35

$$$$
1-nitro-9,10,11,12-tetrahydrobenzo[e]pyrene
csChmFindW1207992328
[comments]
 23 27  0     0  0  0  0  0  0  1 V2000
    2.3333    2.1000    0.0000 C   0  0  0  0  0  0  0  0  0  0
    2.3333    0.7000    0.0000 C   0  0  0  0  0  0  0  0  0  0
    3.5467   -0.0000    0.0000 C   0  0  0  0  0  0  0  0  0  0
    4.7600    0.7000    0.0000 C   0  0  0  0  0  0  0  0  0  0
    4.7600    2.1000    0.0000 C   0  0  0  0  0  0  0  0  0  0
    3.5467    2.8000    0.0000 C   0  0  0  0  0  0  0  0  0  0
    1.1200    2.8000    0.0000 C   0  0  0  0  0  0  0  0  0  0
   -0.0000    2.1000    0.0000 C   0  0  0  0  0  0  0  0  0  0
   -0.0000    0.7000    0.0000 C   0  0  0  0  0  0  0  0  0  0
    1.1200   -0.0000    0.0000 C   0  0  0  0  0  0  0  0  0  0
    2.3333    4.9000    0.0000 C   0  0  0  0  0  0  0  0  0  0
    3.5467    4.2000    0.0000 C   0  0  0  0  0  0  0  0  0  0
    1.1200    4.2000    0.0000 C   0  0  0  0  0  0  0  0  0  0
    5.9733    2.8000    0.0000 C   0  0  0  0  0  0  0  0  0  0
    5.9733    4.2000    0.0000 C   0  0  0  0  0  0  0  0  0  0
    4.7600    4.9000    0.0000 C   0  0  0  0  0  0  0  0  0  0
    2.3333    6.3000    0.0000 C   0  0  0  0  0  0  0  0  0  0
    1.1200    6.9533    0.0000 C   0  0  0  0  0  0  0  0  0  0
   -0.0000    6.3000    0.0000 C   0  0  0  0  0  0  0  0  0  0
   -0.0000    4.9000    0.0000 C   0  0  0  0  0  0  0  0  0  0
    4.7600    6.3000    0.0000 N   0  3  0  0  0  0  0  0  0  0
    5.9733    6.9533    0.0000 O   0  5  0  0  0  0  0  0  0  0
    3.5467    6.9533    0.0000 O   0  0  0  0  0  0  0  0  0  0
  1  2  4  0  0  0  0
  2  3  4  0  0  0  0
  3  4  4  0  0  0  0
  4  5  4  0  0  0  0
  5  6  4  0  0  0  0
  1  6  4  0  0  0  0
  1  7  4  0  0  0  0
  7  8  4  0  0  0  0
  8  9  4  0  0  0  0
  9 10  4  0  0  0  0
  2 10  4  0  0  0  0
 11 12  4  0  0  0  0
 11 13  4  0  0  0  0
  7 13  4  0  0  0  0
  6 12  4  0  0  0  0
  5 14  4  0  0  0  0
 14 15  4  0  0  0  0
 15 16  4  0  0  0  0
 12 16  4  0  0  0  0
 11 17  1  0  0  0  0
 17 18  1  0  0  0  0
 18 19  1  0  0  0  0
 19 20  1  0  0  0  0
 13 20  1  0  0  0  0
 16 21  1  0  0  0  0
 21 22  1  0  0  0  0
 21 23  2  0  0  0  0
M  END
>  <Compound Name> (104)
1-nitro-9,10,11,12-tetrahydrobenzo[e]pyrene

>  <Formula> (104)
C20H15NO2

>  <LogP> (104)
6.26

>  <LUMO> (104)
-1.546

>  <MOL_ID> (104)
104

>  <Activity> (104)
0.7

$$$$
5-nitro-1,10-phenanthroline
csChmFindW1207992328
[comments]
 17 19  0     0  0  0  0  0  0  1 V2000
    0.6530    2.4253    0.0000 C   0  0  0  0  0  0  0  0  0  0
    0.0000    1.2127    0.0000 C   0  0  0  0  0  0  0  0  0  0
    0.6530   -0.0000    0.0000 C   0  0  0  0  0  0  0  0  0  0
    2.0522   -0.0000    0.0000 N   0  0  0  0  0  0  0  0  0  0
    2.7518    1.2127    0.0000 C   0  0  0  0  0  0  0  0  0  0
    2.0522    2.4253    0.0000 C   0  0  0  0  0  0  0  0  0  0
    4.1511    1.2127    0.0000 C   0  0  0  0  0  0  0  0  0  0
    4.8507    2.4253    0.0000 C   0  0  0  0  0  0  0  0  0  0
    4.1511    3.6380    0.0000 C   0  0  0  0  0  0  0  0  0  0
    2.7518    3.6380    0.0000 C   0  0  0  0  0  0  0  0  0  0
    4.8507   -0.0000    0.0000 N   0  0  0  0  0  0  0  0  0  0
    6.2499   -0.0000    0.0000 C   0  0  0  0  0  0  0  0  0  0
    6.9962    1.2127    0.0000 C   0  0  0  0  0  0  0  0  0  0
    6.2499    2.4253    0.0000 C   0  0  0  0  0  0  0  0  0  0
    4.8507    4.8507    0.0000 N   0  3  0  0  0  0  0  0  0  0
    6.2499    4.8507    0.0000 O   0  5  0  0  0  0  0  0  0  0
    4.1511    6.0633    0.0000 O   0  0  0  0  0  0  0  0  0  0
  1  2  4  0  0  0  0
  2  3  4  0  0  0  0
  3  4  4  0  0  0  0
  4  5  4  0  0  0  0
  5  6  4  0  0  0  0
  1  6  4  0  0  0  0
  5  7  4  0  0  0  0
  7  8  4  0  0  0  0
  8  9  4  0  0  0  0
  9 10  4  0  0  0  0
  6 10  4  0  0  0  0
  7 11  4  0  0  0  0
 11 12  4  0  0  0  0
 12 13  4  0  0  0  0
 13 14  4  0  0  0  0
  8 14  4  0  0  0  0
  9 15  1  0  0  0  0
 15 16  1  0  0  0  0
 15 17  2  0  0  0  0
M  END
>  <Compound Name> (105)
5-nitro-1,10-phenanthroline

>  <Formula> (105)
C12H7N3O2

>  <LogP> (105)
1.84

>  <LUMO> (105)
-1.749

>  <MOL_ID> (105)
105

>  <Activity> (105)
0.59

$$$$
10-hydroxy-1-nitropyrene
csChmFindW1207992328
[comments]
 20 23  0     0  0  0  0  0  0  1 V2000
    2.3787    2.0988    0.0000 C   0  0  0  0  0  0  0  0  0  0
    2.3787    0.6996    0.0000 C   0  0  0  0  0  0  0  0  0  0
    3.5913   -0.0000    0.0000 C   0  0  0  0  0  0  0  0  0  0
    4.8040    0.6996    0.0000 C   0  0  0  0  0  0  0  0  0  0
    4.8040    2.0988    0.0000 C   0  0  0  0  0  0  0  0  0  0
    3.5913    2.7984    0.0000 C   0  0  0  0  0  0  0  0  0  0
    1.1660    2.7984    0.0000 C   0  0  0  0  0  0  0  0  0  0
    0.0000    2.0988    0.0000 C   0  0  0  0  0  0  0  0  0  0
    0.0000    0.6996    0.0000 C   0  0  0  0  0  0  0  0  0  0
    1.1660   -0.0000    0.0000 C   0  0  0  0  0  0  0  0  0  0
    3.5913    4.1977    0.0000 C   0  0  0  0  0  0  0  0  0  0
    2.3787    4.8973    0.0000 C   0  0  0  0  0  0  0  0  0  0
    1.1660    4.1977    0.0000 C   0  0  0  0  0  0  0  0  0  0
    6.0167    2.7984    0.0000 C   0  0  0  0  0  0  0  0  0  0
    6.0167    4.1977    0.0000 C   0  0  0  0  0  0  0  0  0  0
    4.8040    4.8973    0.0000 C   0  0  0  0  0  0  0  0  0  0
    2.3787    6.2499    0.0000 O   0  0  0  0  0  0  0  0  0  0
    4.8040    6.2499    0.0000 N   0  3  0  0  0  0  0  0  0  0
    6.0167    6.9028    0.0000 O   0  5  0  0  0  0  0  0  0  0
    3.5913    6.9028    0.0000 O   0  0  0  0  0  0  0  0  0  0
  1  2  4  0  0  0  0
  2  3  4  0  0  0  0
  3  4  4  0  0  0  0
  4  5  4  0  0  0  0
  5  6  4  0  0  0  0
  1  6  4  0  0  0  0
  1  7  4  0  0  0  0
  7  8  4  0  0  0  0
  8  9  4  0  0  0  0
  9 10  4  0  0  0  0
  2 10  4  0  0  0  0
  6 11  4  0  0  0  0
 11 12  4  0  0  0  0
 12 13  4  0  0  0  0
  7 13  4  0  0  0  0
  5 14  4  0  0  0  0
 14 15  4  0  0  0  0
 15 16  4  0  0  0  0
 11 16  4  0  0  0  0
 12 17  1  0  0  0  0
 16 18  1  0  0  0  0
 18 19  1  0  0  0  0
 18 20  2  0  0  0  0
M  END
>  <Compound Name> (106)
10-hydroxy-1-nitropyrene

>  <Formula> (106)
C16H9NO3

>  <LogP> (106)
4.34

>  <LUMO> (106)
-1.607

>  <MOL_ID> (106)
106

>  <Activity> (106)
1.89

$$$$
2,3,5-trinitrofluoranthene
csChmFindW1207992328
[comments]
 25 28  0     0  0  0  0  0  0  1 V2000
    4.8040    4.1977    0.0000 C   0  0  0  0  0  0  0  0  0  0
    4.8040    2.7984    0.0000 C   0  0  0  0  0  0  0  0  0  0
    6.0166    2.0988    0.0000 C   0  0  0  0  0  0  0  0  0  0
    7.2293    2.7984    0.0000 C   0  0  0  0  0  0  0  0  0  0
    7.2293    4.1977    0.0000 C   0  0  0  0  0  0  0  0  0  0
    6.0166    4.8973    0.0000 C   0  0  0  0  0  0  0  0  0  0
    3.5913    4.8973    0.0000 C   0  0  0  0  0  0  0  0  0  0
    2.3787    4.1977    0.0000 C   0  0  0  0  0  0  0  0  0  0
    2.3787    2.7984    0.0000 C   0  0  0  0  0  0  0  0  0  0
    3.5913    2.0988    0.0000 C   0  0  0  0  0  0  0  0  0  0
    5.5036    6.2965    0.0000 C   0  0  0  0  0  0  0  0  0  0
    4.0577    6.2965    0.0000 C   0  0  0  0  0  0  0  0  0  0
    6.2499    7.5558    0.0000 C   0  0  0  0  0  0  0  0  0  0
    5.5036    8.8151    0.0000 C   0  0  0  0  0  0  0  0  0  0
    4.0577    8.8151    0.0000 C   0  0  0  0  0  0  0  0  0  0
    3.3581    7.5558    0.0000 C   0  0  0  0  0  0  0  0  0  0
    8.4420    2.0988    0.0000 N   0  3  0  0  0  0  0  0  0  0
    8.4420    0.6996    0.0000 O   0  5  0  0  0  0  0  0  0  0
    9.6546    2.7984    0.0000 O   0  0  0  0  0  0  0  0  0  0
    6.0166    0.6996    0.0000 N   0  3  0  0  0  0  0  0  0  0
    4.8040    0.0000    0.0000 O   0  5  0  0  0  0  0  0  0  0
    7.2293    0.0000    0.0000 O   0  0  0  0  0  0  0  0  0  0
    1.1660    2.0988    0.0000 N   0  3  0  0  0  0  0  0  0  0
   -0.0000    2.7984    0.0000 O   0  5  0  0  0  0  0  0  0  0
    1.1660    0.6996    0.0000 O   0  0  0  0  0  0  0  0  0  0
  1  2  4  0  0  0  0
  2  3  4  0  0  0  0
  3  4  4  0  0  0  0
  4  5  4  0  0  0  0
  5  6  4  0  0  0  0
  1  6  4  0  0  0  0
  1  7  4  0  0  0  0
  7  8  4  0  0  0  0
  8  9  4  0  0  0  0
  9 10  4  0  0  0  0
  2 10  4  0  0  0  0
  6 11  1  0  0  0  0
  7 12  1  0  0  0  0
 11 12  4  0  0  0  0
 11 13  4  0  0  0  0
 13 14  4  0  0  0  0
 14 15  4  0  0  0  0
 15 16  4  0  0  0  0
 12 16  4  0  0  0  0
  4 17  1  0  0  0  0
 17 18  1  0  0  0  0
 17 19  2  0  0  0  0
  3 20  1  0  0  0  0
 20 21  1  0  0  0  0
 20 22  2  0  0  0  0
  9 23  1  0  0  0  0
 23 24  1  0  0  0  0
 23 25  2  0  0  0  0
M  END
>  <Compound Name> (107)
2,3,5-trinitrofluoranthene

>  <Formula> (107)
C16H7N3O6

>  <LogP> (107)
4.18

>  <LUMO> (107)
-2.791

>  <MOL_ID> (107)
107

>  <Activity> (107)
3.44

$$$$
3-nitrofluoranthene
csChmFindW1207992328
[comments]
 19 22  0     0  0  0  0  0  0  1 V2000
    2.3787    4.1977    0.0000 C   0  0  0  0  0  0  0  0  0  0
    2.3787    2.7984    0.0000 C   0  0  0  0  0  0  0  0  0  0
    3.5913    2.0988    0.0000 C   0  0  0  0  0  0  0  0  0  0
    4.8040    2.7984    0.0000 C   0  0  0  0  0  0  0  0  0  0
    4.8040    4.1977    0.0000 C   0  0  0  0  0  0  0  0  0  0
    3.5913    4.8973    0.0000 C   0  0  0  0  0  0  0  0  0  0
    1.1660    4.8973    0.0000 C   0  0  0  0  0  0  0  0  0  0
   -0.0000    4.1977    0.0000 C   0  0  0  0  0  0  0  0  0  0
   -0.0000    2.7984    0.0000 C   0  0  0  0  0  0  0  0  0  0
    1.1660    2.0988    0.0000 C   0  0  0  0  0  0  0  0  0  0
    3.0783    6.2965    0.0000 C   0  0  0  0  0  0  0  0  0  0
    1.6324    6.2965    0.0000 C   0  0  0  0  0  0  0  0  0  0
    3.8245    7.5558    0.0000 C   0  0  0  0  0  0  0  0  0  0
    3.0783    8.7684    0.0000 C   0  0  0  0  0  0  0  0  0  0
    1.6324    8.7684    0.0000 C   0  0  0  0  0  0  0  0  0  0
    0.9328    7.5558    0.0000 C   0  0  0  0  0  0  0  0  0  0
    3.5913    0.6996    0.0000 N   0  3  0  0  0  0  0  0  0  0
    2.3787    0.0000    0.0000 O   0  5  0  0  0  0  0  0  0  0
    4.8040    0.0000    0.0000 O   0  0  0  0  0  0  0  0  0  0
  1  2  4  0  0  0  0
  2  3  4  0  0  0  0
  3  4  4  0  0  0  0
  4  5  4  0  0  0  0
  5  6  4  0  0  0  0
  1  6  4  0  0  0  0
  1  7  4  0  0  0  0
  7  8  4  0  0  0  0
  8  9  4  0  0  0  0
  9 10  4  0  0  0  0
  2 10  4  0  0  0  0
  6 11  1  0  0  0  0
  7 12  1  0  0  0  0
 11 12  4  0  0  0  0
 11 13  4  0  0  0  0
 13 14  4  0  0  0  0
 14 15  4  0  0  0  0
 15 16  4  0  0  0  0
 12 16  4  0  0  0  0
  3 17  1  0  0  0  0
 17 18  1  0  0  0  0
 17 19  2  0  0  0  0
M  END
>  <Compound Name> (108)
3-nitrofluoranthene

>  <Formula> (108)
C16H9NO2

>  <LogP> (108)
4.69

>  <LUMO> (108)
-1.676

>  <MOL_ID> (108)
108

>  <Activity> (108)
3.67

$$$$
5,10-dinitrobenzo[ghi]perylene
csChmFindW1207992328
[comments]
 28 33  0     0  0  0  0  0  0  1 V2000
    2.0522    3.6380    0.0000 C   0  0  0  0  0  0  0  0  0  0
    2.7518    2.4253    0.0000 C   0  0  0  0  0  0  0  0  0  0
    4.1511    2.4253    0.0000 C   0  0  0  0  0  0  0  0  0  0
    4.8507    3.6380    0.0000 C   0  0  0  0  0  0  0  0  0  0
    4.1511    4.8507    0.0000 C   0  0  0  0  0  0  0  0  0  0
    2.7518    4.8507    0.0000 C   0  0  0  0  0  0  0  0  0  0
    6.2499    3.6380    0.0000 C   0  0  0  0  0  0  0  0  0  0
    6.9495    4.8507    0.0000 C   0  0  0  0  0  0  0  0  0  0
    6.2499    6.0633    0.0000 C   0  0  0  0  0  0  0  0  0  0
    4.8507    6.0633    0.0000 C   0  0  0  0  0  0  0  0  0  0
    6.9495    2.4253    0.0000 C   0  0  0  0  0  0  0  0  0  0
    8.3488    2.4253    0.0000 C   0  0  0  0  0  0  0  0  0  0
    9.0484    3.6380    0.0000 C   0  0  0  0  0  0  0  0  0  0
    8.3488    4.8507    0.0000 C   0  0  0  0  0  0  0  0  0  0
    4.8507    1.2127    0.0000 C   0  0  0  0  0  0  0  0  0  0
    6.2499    1.2127    0.0000 C   0  0  0  0  0  0  0  0  0  0
    6.9495   -0.0000    0.0000 C   0  0  0  0  0  0  0  0  0  0
    8.3488   -0.0000    0.0000 C   0  0  0  0  0  0  0  0  0  0
    9.0484    1.2127    0.0000 C   0  0  0  0  0  0  0  0  0  0
    2.0522    1.2127    0.0000 C   0  0  0  0  0  0  0  0  0  0
    2.7518   -0.0000    0.0000 C   0  0  0  0  0  0  0  0  0  0
    4.1511   -0.0000    0.0000 C   0  0  0  0  0  0  0  0  0  0
   10.4476    1.2127    0.0000 N   0  3  0  0  0  0  0  0  0  0
   11.1472   -0.0000    0.0000 O   0  5  0  0  0  0  0  0  0  0
   11.1472    2.4253    0.0000 O   0  0  0  0  0  0  0  0  0  0
    0.6530    1.2127    0.0000 N   0  3  0  0  0  0  0  0  0  0
   -0.0000    2.4253    0.0000 O   0  5  0  0  0  0  0  0  0  0
   -0.0000   -0.0000    0.0000 O   0  0  0  0  0  0  0  0  0  0
  1  2  4  0  0  0  0
  2  3  4  0  0  0  0
  3  4  4  0  0  0  0
  4  5  4  0  0  0  0
  5  6  4  0  0  0  0
  1  6  4  0  0  0  0
  4  7  4  0  0  0  0
  7  8  4  0  0  0  0
  8  9  4  0  0  0  0
  9 10  4  0  0  0  0
  5 10  4  0  0  0  0
  7 11  4  0  0  0  0
 11 12  4  0  0  0  0
 12 13  4  0  0  0  0
 13 14  4  0  0  0  0
  8 14  4  0  0  0  0
  3 15  4  0  0  0  0
 15 16  4  0  0  0  0
 11 16  4  0  0  0  0
 16 17  4  0  0  0  0
 17 18  4  0  0  0  0
 18 19  4  0  0  0  0
 12 19  4  0  0  0  0
  2 20  4  0  0  0  0
 20 21  4  0  0  0  0
 21 22  4  0  0  0  0
 15 22  4  0  0  0  0
 19 23  1  0  0  0  0
 23 24  1  0  0  0  0
 23 25  2  0  0  0  0
 20 26  1  0  0  0  0
 26 27  1  0  0  0  0
 26 28  2  0  0  0  0
M  END
>  <Compound Name> (109)
5,10-dinitrobenzo[ghi]perylene

>  <Formula> (109)
C22H10N2O4

>  <LogP> (109)
6.07

>  <LUMO> (109)
-2.284

>  <MOL_ID> (109)
109

>  <Activity> (109)
3.6

$$$$
2,4,2',6'-tetranitrobiphenyl
csChmFindW1207992328
[comments]
 24 25  0     0  0  0  0  0  0  1 V2000
    0.6533    4.8533    0.0000 C   0  0  0  0  0  0  0  0  0  0
   -0.0000    3.6400    0.0000 C   0  0  0  0  0  0  0  0  0  0
    0.6533    2.4267    0.0000 C   0  0  0  0  0  0  0  0  0  0
    2.0533    2.4267    0.0000 C   0  0  0  0  0  0  0  0  0  0
    2.7533    3.6400    0.0000 C   0  0  0  0  0  0  0  0  0  0
    2.0533    4.8533    0.0000 C   0  0  0  0  0  0  0  0  0  0
    4.1533    3.6400    0.0000 C   0  0  0  0  0  0  0  0  0  0
    4.8533    2.4267    0.0000 C   0  0  0  0  0  0  0  0  0  0
    6.2533    2.4267    0.0000 C   0  0  0  0  0  0  0  0  0  0
    6.9533    3.6400    0.0000 C   0  0  0  0  0  0  0  0  0  0
    6.2533    4.8533    0.0000 C   0  0  0  0  0  0  0  0  0  0
    4.8533    4.8533    0.0000 C   0  0  0  0  0  0  0  0  0  0
    8.3533    3.6400    0.0000 N   0  3  0  0  0  0  0  0  0  0
    9.0533    2.4267    0.0000 O   0  5  0  0  0  0  0  0  0  0
    9.0533    4.8533    0.0000 O   0  0  0  0  0  0  0  0  0  0
    2.7533    1.2133    0.0000 N   0  3  0  0  0  0  0  0  0  0
    2.0533    0.0000    0.0000 O   0  5  0  0  0  0  0  0  0  0
    4.1533    1.2133    0.0000 O   0  0  0  0  0  0  0  0  0  0
    2.0533    6.2533    0.0000 N   0  3  0  0  0  0  0  0  0  0
    2.7533    6.8600    0.0000 O   0  5  0  0  0  0  0  0  0  0
    0.8400    6.9533    0.0000 O   0  0  0  0  0  0  0  0  0  0
    4.8533    6.1600    0.0000 N   0  3  0  0  0  0  0  0  0  0
    5.8333    6.9066    0.0000 O   0  5  0  0  0  0  0  0  0  0
    3.8733    6.9533    0.0000 O   0  0  0  0  0  0  0  0  0  0
  1  2  4  0  0  0  0
  2  3  4  0  0  0  0
  3  4  4  0  0  0  0
  4  5  4  0  0  0  0
  5  6  4  0  0  0  0
  1  6  4  0  0  0  0
  5  7  4  0  0  0  0
  7  8  4  0  0  0  0
  8  9  4  0  0  0  0
  9 10  4  0  0  0  0
 10 11  4  0  0  0  0
 11 12  4  0  0  0  0
  7 12  4  0  0  0  0
 10 13  1  0  0  0  0
 13 14  1  0  0  0  0
 13 15  2  0  0  0  0
  4 16  1  0  0  0  0
 16 17  1  0  0  0  0
 16 18  2  0  0  0  0
  6 19  1  0  0  0  0
 19 20  1  0  0  0  0
 19 21  2  0  0  0  0
 12 22  1  0  0  0  0
 22 23  1  0  0  0  0
 22 24  2  0  0  0  0
M  END
>  <Compound Name> (110)
2,4,2',6'-tetranitrobiphenyl

>  <Formula> (110)
C12H6N4O8

>  <LogP> (110)
3

>  <LUMO> (110)
-2.14

>  <MOL_ID> (110)
110

>  <Activity> (110)
-0.07

$$$$
4-nitrobenzaldehyde
csChmFindW1207992328
[comments]
 11 11  0     0  0  0  0  0  0  1 V2000
    2.7533   -0.0000    0.0000 C   0  0  0  0  0  0  0  0  0  0
    4.1533   -0.0000    0.0000 C   0  0  0  0  0  0  0  0  0  0
    4.8533    1.2133    0.0000 C   0  0  0  0  0  0  0  0  0  0
    4.1533    2.3800    0.0000 C   0  0  0  0  0  0  0  0  0  0
    2.7533    2.3800    0.0000 C   0  0  0  0  0  0  0  0  0  0
    2.0533    1.2133    0.0000 C   0  0  0  0  0  0  0  0  0  0
    6.2533    1.2133    0.0000 C   0  0  0  0  0  0  0  0  0  0
    7.0467    2.3800    0.0000 O   0  0  0  0  0  0  0  0  0  0
    0.6533    1.2133    0.0000 N   0  3  0  0  0  0  0  0  0  0
    0.0000    2.3800    0.0000 O   0  5  0  0  0  0  0  0  0  0
    0.0000   -0.0000    0.0000 O   0  0  0  0  0  0  0  0  0  0
  1  2  4  0  0  0  0
  2  3  4  0  0  0  0
  3  4  4  0  0  0  0
  4  5  4  0  0  0  0
  5  6  4  0  0  0  0
  1  6  4  0  0  0  0
  3  7  1  0  0  0  0
  7  8  2  0  0  0  0
  6  9  1  0  0  0  0
  9 10  1  0  0  0  0
  9 11  2  0  0  0  0
M  END
>  <Compound Name> (111)
4-nitrobenzaldehyde

>  <Formula> (111)
C7H5NO3

>  <LogP> (111)
1.56

>  <LUMO> (111)
-1.687

>  <MOL_ID> (111)
111

>  <Activity> (111)
-1.64

$$$$
3-nitroacenaphthene
csChmFindW1207992328
[comments]
 15 17  0     0  0  0  0  0  0  1 V2000
    2.3787    2.0988    0.0000 C   0  0  0  0  0  0  0  0  0  0
    2.3787    0.6996    0.0000 C   0  0  0  0  0  0  0  0  0  0
    3.5913    0.0000    0.0000 C   0  0  0  0  0  0  0  0  0  0
    4.8040    0.6996    0.0000 C   0  0  0  0  0  0  0  0  0  0
    4.8040    2.0988    0.0000 C   0  0  0  0  0  0  0  0  0  0
    3.5913    2.7985    0.0000 C   0  0  0  0  0  0  0  0  0  0
    1.1660    2.7985    0.0000 C   0  0  0  0  0  0  0  0  0  0
   -0.0000    2.0988    0.0000 C   0  0  0  0  0  0  0  0  0  0
   -0.0000    0.6996    0.0000 C   0  0  0  0  0  0  0  0  0  0
    1.1660    0.0000    0.0000 C   0  0  0  0  0  0  0  0  0  0
    3.5913    4.1977    0.0000 C   0  0  0  0  0  0  0  0  0  0
    1.1660    4.1977    0.0000 C   0  0  0  0  0  0  0  0  0  0
    6.0167    2.7985    0.0000 N   0  3  0  0  0  0  0  0  0  0
    7.2293    2.0988    0.0000 O   0  5  0  0  0  0  0  0  0  0
    6.0167    4.1977    0.0000 O   0  0  0  0  0  0  0  0  0  0
  1  2  4  0  0  0  0
  2  3  4  0  0  0  0
  3  4  4  0  0  0  0
  4  5  4  0  0  0  0
  5  6  4  0  0  0  0
  1  6  4  0  0  0  0
  1  7  4  0  0  0  0
  7  8  4  0  0  0  0
  8  9  4  0  0  0  0
  9 10  4  0  0  0  0
  2 10  4  0  0  0  0
  6 11  1  0  0  0  0
  7 12  1  0  0  0  0
 11 12  1  0  0  0  0
  5 13  1  0  0  0  0
 13 14  1  0  0  0  0
 13 15  2  0  0  0  0
M  END
>  <Compound Name> (112)
3-nitroacenaphthene

>  <Formula> (112)
C12H9NO2

>  <LogP> (112)
3.81

>  <LUMO> (112)
-1.208

>  <MOL_ID> (112)
112

>  <Activity> (112)
1

$$$$
2,4-dinitroaniline
csChmFindW1207992328
[comments]
 13 13  0     0  0  0  0  0  0  1 V2000
    2.0533    1.2133    0.0000 C   0  0  0  0  0  0  0  0  0  0
    2.7533   -0.0000    0.0000 C   0  0  0  0  0  0  0  0  0  0
    4.1533   -0.0000    0.0000 C   0  0  0  0  0  0  0  0  0  0
    4.8533    1.2133    0.0000 C   0  0  0  0  0  0  0  0  0  0
    4.1533    2.4267    0.0000 C   0  0  0  0  0  0  0  0  0  0
    2.7533    2.4267    0.0000 C   0  0  0  0  0  0  0  0  0  0
    6.2533    1.2133    0.0000 N   0  0  0  2  0  0  0  0  0  0
    4.8533    3.6400    0.0000 N   0  3  0  0  0  0  0  0  0  0
    6.2533    3.6400    0.0000 O   0  5  0  0  0  0  0  0  0  0
    4.1533    4.8067    0.0000 O   0  0  0  0  0  0  0  0  0  0
    0.6533    1.2133    0.0000 N   0  3  0  0  0  0  0  0  0  0
    0.0000    2.4267    0.0000 O   0  5  0  0  0  0  0  0  0  0
    0.0000   -0.0000    0.0000 O   0  0  0  0  0  0  0  0  0  0
  1  2  4  0  0  0  0
  2  3  4  0  0  0  0
  3  4  4  0  0  0  0
  4  5  4  0  0  0  0
  5  6  4  0  0  0  0
  1  6  4  0  0  0  0
  4  7  1  0  0  0  0
  5  8  1  0  0  0  0
  8  9  1  0  0  0  0
  8 10  2  0  0  0  0
  1 11  1  0  0  0  0
 11 12  1  0  0  0  0
 11 13  2  0  0  0  0
M  END
>  <Compound Name> (113)
2,4-dinitroaniline

>  <Formula> (113)
C6H5N3O4

>  <LogP> (113)
1.84

>  <LUMO> (113)
-1.491

>  <MOL_ID> (113)
113

>  <Activity> (113)
-1.74

$$$$
2-amino-4'-nitrobiphenyl
csChmFindW1207992328
[comments]
 16 17  0     0  0  0  0  0  0  1 V2000
    2.7518    2.4253    0.0000 C   0  0  0  0  0  0  0  0  0  0
    2.0522    1.2127    0.0000 C   0  0  0  0  0  0  0  0  0  0
    2.7518    0.0000    0.0000 C   0  0  0  0  0  0  0  0  0  0
    4.1510    0.0000    0.0000 C   0  0  0  0  0  0  0  0  0  0
    4.8506    1.2127    0.0000 C   0  0  0  0  0  0  0  0  0  0
    4.1510    2.4253    0.0000 C   0  0  0  0  0  0  0  0  0  0
    6.2499    1.2127    0.0000 C   0  0  0  0  0  0  0  0  0  0
    6.9495    0.0000    0.0000 C   0  0  0  0  0  0  0  0  0  0
    8.3487    0.0000    0.0000 C   0  0  0  0  0  0  0  0  0  0
    9.0483    1.2127    0.0000 C   0  0  0  0  0  0  0  0  0  0
    8.3487    2.4253    0.0000 C   0  0  0  0  0  0  0  0  0  0
    6.9495    2.4253    0.0000 C   0  0  0  0  0  0  0  0  0  0
    6.2499    3.6380    0.0000 N   0  0  0  2  0  0  0  0  0  0
    0.6530    1.2127    0.0000 N   0  3  0  0  0  0  0  0  0  0
   -0.0000    2.4253    0.0000 O   0  5  0  0  0  0  0  0  0  0
   -0.0000    0.0000    0.0000 O   0  0  0  0  0  0  0  0  0  0
  1  2  4  0  0  0  0
  2  3  4  0  0  0  0
  3  4  4  0  0  0  0
  4  5  4  0  0  0  0
  5  6  4  0  0  0  0
  1  6  4  0  0  0  0
  5  7  1  0  0  0  0
  7  8  4  0  0  0  0
  8  9  4  0  0  0  0
  9 10  4  0  0  0  0
 10 11  4  0  0  0  0
 11 12  4  0  0  0  0
  7 12  4  0  0  0  0
 12 13  1  0  0  0  0
  2 14  1  0  0  0  0
 14 15  1  0  0  0  0
 14 16  2  0  0  0  0
M  END
>  <Compound Name> (114)
2-amino-4'-nitrobiphenyl

>  <Formula> (114)
C12H10N2O2

>  <LogP> (114)
2.68

>  <LUMO> (114)
-1.148

>  <MOL_ID> (114)
114

>  <Activity> (114)
-1.7

$$$$
5-nitroindene
csChmFindW1207992328
[comments]
 12 13  0     0  0  0  0  0  0  1 V2000
    2.3787    2.0988    0.0000 C   0  0  0  0  0  0  0  0  0  0
    2.3787    0.6996    0.0000 C   0  0  0  0  0  0  0  0  0  0
    3.5913    0.0000    0.0000 C   0  0  0  0  0  0  0  0  0  0
    4.8040    0.6996    0.0000 C   0  0  0  0  0  0  0  0  0  0
    4.8040    2.0988    0.0000 C   0  0  0  0  0  0  0  0  0  0
    3.5913    2.7984    0.0000 C   0  0  0  0  0  0  0  0  0  0
    6.0166    0.0000    0.0000 C   0  0  0  0  0  0  0  0  0  0
    7.2293    0.6996    0.0000 C   0  0  0  0  0  0  0  0  0  0
    7.2293    2.0988    0.0000 C   0  0  0  0  0  0  0  0  0  0
    1.1660    2.7984    0.0000 N   0  3  0  0  0  0  0  0  0  0
    1.1660    4.1977    0.0000 O   0  5  0  0  0  0  0  0  0  0
   -0.0000    2.0988    0.0000 O   0  0  0  0  0  0  0  0  0  0
  1  2  4  0  0  0  0
  2  3  4  0  0  0  0
  3  4  4  0  0  0  0
  4  5  4  0  0  0  0
  5  6  4  0  0  0  0
  1  6  4  0  0  0  0
  4  7  1  0  0  0  0
  7  8  1  0  0  0  0
  8  9  2  0  0  0  0
  5  9  1  0  0  0  0
  1 10  1  0  0  0  0
 10 11  1  0  0  0  0
 10 12  2  0  0  0  0
M  END
>  <Compound Name> (115)
5-nitroindene

>  <Formula> (115)
C9H7NO2

>  <LogP> (115)
2.74

>  <LUMO> (115)
-1.161

>  <MOL_ID> (115)
115

>  <Activity> (115)
0.08

$$$$
4-fluoronitrobenzene
csChmFindW1207992328
[comments]
 10 10  0     0  0  0  0  0  0  1 V2000
    1.3533    1.2133    0.0000 C   0  0  0  0  0  0  0  0  0  0
    2.0533   -0.0000    0.0000 C   0  0  0  0  0  0  0  0  0  0
    3.4533   -0.0000    0.0000 C   0  0  0  0  0  0  0  0  0  0
    4.1533    1.2133    0.0000 C   0  0  0  0  0  0  0  0  0  0
    3.4533    2.3800    0.0000 C   0  0  0  0  0  0  0  0  0  0
    2.0533    2.3800    0.0000 C   0  0  0  0  0  0  0  0  0  0
    0.0000    1.2133    0.0000 F   0  0  0  0  0  0  0  0  0  0
    5.5533    1.2133    0.0000 N   0  3  0  0  0  0  0  0  0  0
    6.2533   -0.0000    0.0000 O   0  5  0  0  0  0  0  0  0  0
    6.2533    2.3800    0.0000 O   0  0  0  0  0  0  0  0  0  0
  1  2  4  0  0  0  0
  2  3  4  0  0  0  0
  3  4  4  0  0  0  0
  4  5  4  0  0  0  0
  5  6  4  0  0  0  0
  1  6  4  0  0  0  0
  1  7  1  0  0  0  0
  4  8  1  0  0  0  0
  8  9  1  0  0  0  0
  8 10  2  0  0  0  0
M  END
>  <Compound Name> (116)
4-fluoronitrobenzene

>  <Formula> (116)
C6H4FNO2

>  <LogP> (116)
1.8

>  <LUMO> (116)
-1.37

>  <MOL_ID> (116)
116

>  <Activity> (116)
-0.23

$$$$
2,4,3'-trinitrobiphenyl
csChmFindW1207992328
[comments]
 21 22  0     0  0  0  0  0  0  1 V2000
    2.0522    2.4253    0.0000 C   0  0  0  0  0  0  0  0  0  0
    1.3526    1.2127    0.0000 C   0  0  0  0  0  0  0  0  0  0
    2.0522    0.0000    0.0000 C   0  0  0  0  0  0  0  0  0  0
    3.4514    0.0000    0.0000 C   0  0  0  0  0  0  0  0  0  0
    4.1510    1.2127    0.0000 C   0  0  0  0  0  0  0  0  0  0
    3.4514    2.4253    0.0000 C   0  0  0  0  0  0  0  0  0  0
    5.5502    1.2127    0.0000 C   0  0  0  0  0  0  0  0  0  0
    6.2499    0.0000    0.0000 C   0  0  0  0  0  0  0  0  0  0
    7.6491    0.0000    0.0000 C   0  0  0  0  0  0  0  0  0  0
    8.3487    1.2127    0.0000 C   0  0  0  0  0  0  0  0  0  0
    7.6491    2.4253    0.0000 C   0  0  0  0  0  0  0  0  0  0
    6.2499    2.4253    0.0000 C   0  0  0  0  0  0  0  0  0  0
    5.5502    3.6380    0.0000 N   0  3  0  0  0  0  0  0  0  0
    6.2499    4.8040    0.0000 O   0  5  0  0  0  0  0  0  0  0
    4.1510    3.6380    0.0000 O   0  0  0  0  0  0  0  0  0  0
    9.7479    1.2127    0.0000 N   0  3  0  0  0  0  0  0  0  0
   10.4475    0.0000    0.0000 O   0  5  0  0  0  0  0  0  0  0
   10.4475    2.4253    0.0000 O   0  0  0  0  0  0  0  0  0  0
    1.3526    3.6380    0.0000 N   0  3  0  0  0  0  0  0  0  0
    2.0522    4.8040    0.0000 O   0  5  0  0  0  0  0  0  0  0
   -0.0000    3.6380    0.0000 O   0  0  0  0  0  0  0  0  0  0
  1  2  4  0  0  0  0
  2  3  4  0  0  0  0
  3  4  4  0  0  0  0
  4  5  4  0  0  0  0
  5  6  4  0  0  0  0
  1  6  4  0  0  0  0
  5  7  1  0  0  0  0
  7  8  4  0  0  0  0
  8  9  4  0  0  0  0
  9 10  4  0  0  0  0
 10 11  4  0  0  0  0
 11 12  4  0  0  0  0
  7 12  4  0  0  0  0
 12 13  1  0  0  0  0
 13 14  1  0  0  0  0
 13 15  2  0  0  0  0
 10 16  1  0  0  0  0
 16 17  1  0  0  0  0
 16 18  2  0  0  0  0
  1 19  1  0  0  0  0
 19 20  1  0  0  0  0
 19 21  2  0  0  0  0
M  END
>  <Compound Name> (117)
2,4,3'-trinitrobiphenyl

>  <Formula> (117)
C12H7N3O6

>  <LogP> (117)
3.26

>  <LUMO> (117)
-2.142

>  <MOL_ID> (117)
117

>  <Activity> (117)
0.03

$$$$
3-nitro-7,8,9,10-tetrahydrobenzo[a]pyrene
csChmFindW1207992328
[comments]
 23 27  0     0  0  0  0  0  0  1 V2000
    0.0000    2.1000    0.0000 C   0  0  0  0  0  0  0  0  0  0
    0.0000    0.7000    0.0000 C   0  0  0  0  0  0  0  0  0  0
    1.1667    0.0000    0.0000 C   0  0  0  0  0  0  0  0  0  0
    2.3800    0.7000    0.0000 C   0  0  0  0  0  0  0  0  0  0
    2.3800    2.1000    0.0000 C   0  0  0  0  0  0  0  0  0  0
    1.1667    2.8000    0.0000 C   0  0  0  0  0  0  0  0  0  0
    3.5933    0.0000    0.0000 C   0  0  0  0  0  0  0  0  0  0
    4.8066    0.7000    0.0000 C   0  0  0  0  0  0  0  0  0  0
    4.8066    2.1000    0.0000 C   0  0  0  0  0  0  0  0  0  0
    3.5933    2.8000    0.0000 C   0  0  0  0  0  0  0  0  0  0
    6.0200    0.0000    0.0000 C   0  0  0  0  0  0  0  0  0  0
    7.2333    0.7000    0.0000 C   0  0  0  0  0  0  0  0  0  0
    7.2333    2.1000    0.0000 C   0  0  0  0  0  0  0  0  0  0
    6.0200    2.8000    0.0000 C   0  0  0  0  0  0  0  0  0  0
    6.0200    4.2000    0.0000 C   0  0  0  0  0  0  0  0  0  0
    4.8066    4.8533    0.0000 C   0  0  0  0  0  0  0  0  0  0
    3.5933    4.2000    0.0000 C   0  0  0  0  0  0  0  0  0  0
    8.4466    2.8000    0.0000 C   0  0  0  0  0  0  0  0  0  0
    8.4466    4.2000    0.0000 C   0  0  0  0  0  0  0  0  0  0
    7.2333    4.8533    0.0000 C   0  0  0  0  0  0  0  0  0  0
    9.6600    2.1000    0.0000 N   0  3  0  0  0  0  0  0  0  0
    9.6600    0.7000    0.0000 O   0  5  0  0  0  0  0  0  0  0
   10.8733    2.8000    0.0000 O   0  0  0  0  0  0  0  0  0  0
  1  2  1  0  0  0  0
  2  3  1  0  0  0  0
  3  4  1  0  0  0  0
  4  5  4  0  0  0  0
  5  6  1  0  0  0  0
  1  6  1  0  0  0  0
  4  7  4  0  0  0  0
  7  8  4  0  0  0  0
  8  9  4  0  0  0  0
  9 10  4  0  0  0  0
  5 10  4  0  0  0  0
  8 11  4  0  0  0  0
 11 12  4  0  0  0  0
 12 13  4  0  0  0  0
 13 14  4  0  0  0  0
  9 14  4  0  0  0  0
 14 15  4  0  0  0  0
 15 16  4  0  0  0  0
 16 17  4  0  0  0  0
 10 17  4  0  0  0  0
 13 18  4  0  0  0  0
 18 19  4  0  0  0  0
 19 20  4  0  0  0  0
 15 20  4  0  0  0  0
 18 21  1  0  0  0  0
 21 22  1  0  0  0  0
 21 23  2  0  0  0  0
M  END
>  <Compound Name> (118)
3-nitro-7,8,9,10-tetrahydrobenzo[a]pyrene

>  <Formula> (118)
C20H15NO2

>  <LogP> (118)
6.57

>  <LUMO> (118)
-1.8

>  <MOL_ID> (118)
118

>  <Activity> (118)
0.3

$$$$
2,4,2'-trinitrobiphenyl
csChmFindW1207992328
[comments]
 21 22  0     0  0  0  0  0  0  1 V2000
    0.6530    4.8506    0.0000 C   0  0  0  0  0  0  0  0  0  0
   -0.0000    3.6380    0.0000 C   0  0  0  0  0  0  0  0  0  0
    0.6530    2.4253    0.0000 C   0  0  0  0  0  0  0  0  0  0
    2.0522    2.4253    0.0000 C   0  0  0  0  0  0  0  0  0  0
    2.7518    3.6380    0.0000 C   0  0  0  0  0  0  0  0  0  0
    2.0522    4.8506    0.0000 C   0  0  0  0  0  0  0  0  0  0
    4.1510    3.6380    0.0000 C   0  0  0  0  0  0  0  0  0  0
    4.8506    2.4253    0.0000 C   0  0  0  0  0  0  0  0  0  0
    6.2499    2.4253    0.0000 C   0  0  0  0  0  0  0  0  0  0
    6.9495    3.6380    0.0000 C   0  0  0  0  0  0  0  0  0  0
    6.2499    4.8506    0.0000 C   0  0  0  0  0  0  0  0  0  0
    4.8506    4.8506    0.0000 C   0  0  0  0  0  0  0  0  0  0
    4.1510    6.0633    0.0000 N   0  3  0  0  0  0  0  0  0  0
    4.8506    7.2760    0.0000 O   0  5  0  0  0  0  0  0  0  0
    2.7518    6.0633    0.0000 O   0  0  0  0  0  0  0  0  0  0
    8.3487    3.6380    0.0000 N   0  3  0  0  0  0  0  0  0  0
    9.0483    2.4253    0.0000 O   0  5  0  0  0  0  0  0  0  0
    9.0483    4.8506    0.0000 O   0  0  0  0  0  0  0  0  0  0
    2.7518    1.2127    0.0000 N   0  3  0  0  0  0  0  0  0  0
    2.0522    0.0000    0.0000 O   0  5  0  0  0  0  0  0  0  0
    4.1510    1.2127    0.0000 O   0  0  0  0  0  0  0  0  0  0
  1  2  4  0  0  0  0
  2  3  4  0  0  0  0
  3  4  4  0  0  0  0
  4  5  4  0  0  0  0
  5  6  4  0  0  0  0
  1  6  4  0  0  0  0
  5  7  1  0  0  0  0
  7  8  4  0  0  0  0
  8  9  4  0  0  0  0
  9 10  4  0  0  0  0
 10 11  4  0  0  0  0
 11 12  4  0  0  0  0
  7 12  4  0  0  0  0
 12 13  1  0  0  0  0
 13 14  1  0  0  0  0
 13 15  2  0  0  0  0
 10 16  1  0  0  0  0
 16 17  1  0  0  0  0
 16 18  2  0  0  0  0
  4 19  1  0  0  0  0
 19 20  1  0  0  0  0
 19 21  2  0  0  0  0
M  END
>  <Compound Name> (119)
2,4,2'-trinitrobiphenyl

>  <Formula> (119)
C12H7N3O6

>  <LogP> (119)
3.26

>  <LUMO> (119)
-1.995

>  <MOL_ID> (119)
119

>  <Activity> (119)
-0.19

$$$$
1-methyl-5-nitroindazole
csChmFindW1207992328
[comments]
 13 14  0     0  0  0  0  0  0  1 V2000
    2.3787    3.1716    0.0000 C   0  0  0  0  0  0  0  0  0  0
    2.3787    1.7724    0.0000 C   0  0  0  0  0  0  0  0  0  0
    3.5913    1.0727    0.0000 C   0  0  0  0  0  0  0  0  0  0
    4.8040    1.7724    0.0000 C   0  0  0  0  0  0  0  0  0  0
    4.8040    3.1716    0.0000 C   0  0  0  0  0  0  0  0  0  0
    3.5913    3.8712    0.0000 C   0  0  0  0  0  0  0  0  0  0
    6.1566    1.3526    0.0000 N   0  0  0  0  0  0  0  0  0  0
    6.9495    2.4720    0.0000 N   0  0  0  0  0  0  0  0  0  0
    6.1566    3.5913    0.0000 C   0  0  0  0  0  0  0  0  0  0
    6.4831   -0.0000    0.0000 C   0  0  0  0  0  0  0  0  0  0
    1.1660    3.8712    0.0000 N   0  3  0  0  0  0  0  0  0  0
    1.1660    5.2704    0.0000 O   0  5  0  0  0  0  0  0  0  0
   -0.0000    3.1716    0.0000 O   0  0  0  0  0  0  0  0  0  0
  1  2  4  0  0  0  0
  2  3  4  0  0  0  0
  3  4  4  0  0  0  0
  4  5  4  0  0  0  0
  5  6  4  0  0  0  0
  1  6  4  0  0  0  0
  4  7  4  0  0  0  0
  7  8  4  0  0  0  0
  8  9  4  0  0  0  0
  5  9  4  0  0  0  0
  7 10  1  0  0  0  0
  1 11  1  0  0  0  0
 11 12  1  0  0  0  0
 11 13  2  0  0  0  0
M  END
>  <Compound Name> (120)
1-methyl-5-nitroindazole

>  <Formula> (120)
C8H8N3O2

>  <LogP> (120)
1.77

>  <LUMO> (120)
-0.937

>  <MOL_ID> (120)
120

>  <Activity> (120)
-0.82

$$$$
1,2,5-trinitrofluoranthene
csChmFindW1207992328
[comments]
 25 28  0     0  0  0  0  0  0  1 V2000
    4.8040    3.4981    0.0000 C   0  0  0  0  0  0  0  0  0  0
    4.8040    2.0988    0.0000 C   0  0  0  0  0  0  0  0  0  0
    6.0166    1.3992    0.0000 C   0  0  0  0  0  0  0  0  0  0
    7.2293    2.0988    0.0000 C   0  0  0  0  0  0  0  0  0  0
    7.2293    3.4981    0.0000 C   0  0  0  0  0  0  0  0  0  0
    6.0166    4.1977    0.0000 C   0  0  0  0  0  0  0  0  0  0
    3.5913    4.1977    0.0000 C   0  0  0  0  0  0  0  0  0  0
    2.3787    3.4981    0.0000 C   0  0  0  0  0  0  0  0  0  0
    2.3787    2.0988    0.0000 C   0  0  0  0  0  0  0  0  0  0
    3.5913    1.3992    0.0000 C   0  0  0  0  0  0  0  0  0  0
    5.5969    5.5969    0.0000 C   0  0  0  0  0  0  0  0  0  0
    3.9178    5.5969    0.0000 C   0  0  0  0  0  0  0  0  0  0
    6.4364    7.0427    0.0000 C   0  0  0  0  0  0  0  0  0  0
    5.5969    8.4420    0.0000 C   0  0  0  0  0  0  0  0  0  0
    3.9178    8.4420    0.0000 C   0  0  0  0  0  0  0  0  0  0
    3.0783    7.0427    0.0000 C   0  0  0  0  0  0  0  0  0  0
    8.4420    4.1977    0.0000 N   0  3  0  0  0  0  0  0  0  0
    9.6546    3.4981    0.0000 O   0  5  0  0  0  0  0  0  0  0
    8.4420    5.5969    0.0000 O   0  0  0  0  0  0  0  0  0  0
    8.4420    1.3992    0.0000 N   0  3  0  0  0  0  0  0  0  0
    8.4420    0.0000    0.0000 O   0  5  0  0  0  0  0  0  0  0
    9.6546    2.0988    0.0000 O   0  0  0  0  0  0  0  0  0  0
    1.1660    1.3992    0.0000 N   0  3  0  0  0  0  0  0  0  0
   -0.0000    2.0988    0.0000 O   0  5  0  0  0  0  0  0  0  0
    1.1660    0.0000    0.0000 O   0  0  0  0  0  0  0  0  0  0
  1  2  4  0  0  0  0
  2  3  4  0  0  0  0
  3  4  4  0  0  0  0
  4  5  4  0  0  0  0
  5  6  4  0  0  0  0
  1  6  4  0  0  0  0
  1  7  4  0  0  0  0
  7  8  4  0  0  0  0
  8  9  4  0  0  0  0
  9 10  4  0  0  0  0
  2 10  4  0  0  0  0
  6 11  1  0  0  0  0
  7 12  1  0  0  0  0
 11 12  4  0  0  0  0
 11 13  4  0  0  0  0
 13 14  4  0  0  0  0
 14 15  4  0  0  0  0
 15 16  4  0  0  0  0
 12 16  4  0  0  0  0
  5 17  1  0  0  0  0
 17 18  1  0  0  0  0
 17 19  2  0  0  0  0
  4 20  1  0  0  0  0
 20 21  1  0  0  0  0
 20 22  2  0  0  0  0
  9 23  1  0  0  0  0
 23 24  1  0  0  0  0
 23 25  2  0  0  0  0
M  END
>  <Compound Name> (121)
1,2,5-trinitrofluoranthene

>  <Formula> (121)
C16H7N3O6

>  <LogP> (121)
4.18

>  <LUMO> (121)
-2.68

>  <MOL_ID> (121)
121

>  <Activity> (121)
3.16

$$$$
6-nitrochrysene
csChmFindW1207992328
[comments]
 21 24  0     0  0  0  0  0  0  1 V2000
    2.3800    4.2000    0.0000 C   0  0  0  0  0  0  0  0  0  0
    2.3800    2.8000    0.0000 C   0  0  0  0  0  0  0  0  0  0
    3.5933    2.1000    0.0000 C   0  0  0  0  0  0  0  0  0  0
    4.8066    2.8000    0.0000 C   0  0  0  0  0  0  0  0  0  0
    4.8066    4.2000    0.0000 C   0  0  0  0  0  0  0  0  0  0
    3.5933    4.9000    0.0000 C   0  0  0  0  0  0  0  0  0  0
    1.1667    4.9000    0.0000 C   0  0  0  0  0  0  0  0  0  0
   -0.0000    4.2000    0.0000 C   0  0  0  0  0  0  0  0  0  0
   -0.0000    2.8000    0.0000 C   0  0  0  0  0  0  0  0  0  0
    1.1667    2.1000    0.0000 C   0  0  0  0  0  0  0  0  0  0
    6.0200    4.9000    0.0000 C   0  0  0  0  0  0  0  0  0  0
    6.0200    6.3000    0.0000 C   0  0  0  0  0  0  0  0  0  0
    4.8066    6.9533    0.0000 C   0  0  0  0  0  0  0  0  0  0
    3.5933    6.3000    0.0000 C   0  0  0  0  0  0  0  0  0  0
    7.2333    4.2000    0.0000 C   0  0  0  0  0  0  0  0  0  0
    8.4466    4.9000    0.0000 C   0  0  0  0  0  0  0  0  0  0
    8.4466    6.3000    0.0000 C   0  0  0  0  0  0  0  0  0  0
    7.2333    6.9533    0.0000 C   0  0  0  0  0  0  0  0  0  0
    3.5933    0.7000    0.0000 N   0  3  0  0  0  0  0  0  0  0
    2.3800    0.0000    0.0000 O   0  5  0  0  0  0  0  0  0  0
    4.8066    0.0000    0.0000 O   0  0  0  0  0  0  0  0  0  0
  1  2  4  0  0  0  0
  2  3  4  0  0  0  0
  3  4  4  0  0  0  0
  4  5  4  0  0  0  0
  5  6  4  0  0  0  0
  1  6  4  0  0  0  0
  1  7  4  0  0  0  0
  7  8  4  0  0  0  0
  8  9  4  0  0  0  0
  9 10  4  0  0  0  0
  2 10  4  0  0  0  0
  5 11  4  0  0  0  0
 11 12  4  0  0  0  0
 12 13  4  0  0  0  0
 13 14  4  0  0  0  0
  6 14  4  0  0  0  0
 11 15  4  0  0  0  0
 15 16  4  0  0  0  0
 16 17  4  0  0  0  0
 17 18  4  0  0  0  0
 12 18  4  0  0  0  0
  3 19  1  0  0  0  0
 19 20  1  0  0  0  0
 19 21  2  0  0  0  0
M  END
>  <Compound Name> (122)
6-nitrochrysene

>  <Formula> (122)
C18H11NO2

>  <LogP> (122)
5.41

>  <LUMO> (122)
-1.61

>  <MOL_ID> (122)
122

>  <Activity> (122)
1.75

$$$$
3,2'-dimethyl-4-nitrobiphenyl
csChmFindW1207992328
[comments]
 17 18  0     0  0  0  0  0  0  1 V2000
    0.6530    2.4253    0.0000 C   0  0  0  0  0  0  0  0  0  0
   -0.0000    1.2127    0.0000 C   0  0  0  0  0  0  0  0  0  0
    0.6530    0.0000    0.0000 C   0  0  0  0  0  0  0  0  0  0
    2.0522    0.0000    0.0000 C   0  0  0  0  0  0  0  0  0  0
    2.7518    1.2127    0.0000 C   0  0  0  0  0  0  0  0  0  0
    2.0522    2.4253    0.0000 C   0  0  0  0  0  0  0  0  0  0
    4.1510    1.2127    0.0000 C   0  0  0  0  0  0  0  0  0  0
    4.8506    0.0000    0.0000 C   0  0  0  0  0  0  0  0  0  0
    6.2499    0.0000    0.0000 C   0  0  0  0  0  0  0  0  0  0
    6.9495    1.2127    0.0000 C   0  0  0  0  0  0  0  0  0  0
    6.2499    2.4253    0.0000 C   0  0  0  0  0  0  0  0  0  0
    4.8506    2.4253    0.0000 C   0  0  0  0  0  0  0  0  0  0
    6.9495    3.6380    0.0000 C   0  0  0  0  0  0  0  0  0  0
    2.7518    3.6380    0.0000 C   0  0  0  0  0  0  0  0  0  0
    8.3487    1.2127    0.0000 N   0  3  0  0  0  0  0  0  0  0
    9.0483    0.0000    0.0000 O   0  5  0  0  0  0  0  0  0  0
    9.0483    2.4253    0.0000 O   0  0  0  0  0  0  0  0  0  0
  1  2  4  0  0  0  0
  2  3  4  0  0  0  0
  3  4  4  0  0  0  0
  4  5  4  0  0  0  0
  5  6  4  0  0  0  0
  1  6  4  0  0  0  0
  5  7  1  0  0  0  0
  7  8  4  0  0  0  0
  8  9  4  0  0  0  0
  9 10  4  0  0  0  0
 10 11  4  0  0  0  0
 11 12  4  0  0  0  0
  7 12  4  0  0  0  0
 11 13  1  0  0  0  0
  6 14  1  0  0  0  0
 10 15  1  0  0  0  0
 15 16  1  0  0  0  0
 15 17  2  0  0  0  0
M  END
>  <Compound Name> (123)
3,2'-dimethyl-4-nitrobiphenyl

>  <Formula> (123)
C14H13NO2

>  <LogP> (123)
4.49

>  <LUMO> (123)
-1.056

>  <MOL_ID> (123)
123

>  <Activity> (123)
-0.84

$$$$
1-nitro-2,4-difluorobenzene
csChmFindW1207992328
[comments]
 11 11  0     0  0  0  0  0  0  1 V2000
    2.0522    0.0000    0.0000 C   0  0  0  0  0  0  0  0  0  0
    3.4514    0.0000    0.0000 C   0  0  0  0  0  0  0  0  0  0
    4.1510    1.2127    0.0000 C   0  0  0  0  0  0  0  0  0  0
    3.4514    2.4253    0.0000 C   0  0  0  0  0  0  0  0  0  0
    2.0522    2.4253    0.0000 C   0  0  0  0  0  0  0  0  0  0
    1.3526    1.2127    0.0000 C   0  0  0  0  0  0  0  0  0  0
    5.5502    1.2127    0.0000 N   0  3  0  0  0  0  0  0  0  0
    6.2498    0.0000    0.0000 O   0  5  0  0  0  0  0  0  0  0
    6.2498    2.4253    0.0000 O   0  0  0  0  0  0  0  0  0  0
    4.1510    3.6380    0.0000 F   0  0  0  0  0  0  0  0  0  0
   -0.0000    1.2127    0.0000 F   0  0  0  0  0  0  0  0  0  0
  1  2  4  0  0  0  0
  2  3  4  0  0  0  0
  3  4  4  0  0  0  0
  4  5  4  0  0  0  0
  5  6  4  0  0  0  0
  1  6  4  0  0  0  0
  3  7  1  0  0  0  0
  7  8  1  0  0  0  0
  7  9  2  0  0  0  0
  4 10  1  0  0  0  0
  6 11  1  0  0  0  0
M  END
>  <Compound Name> (124)
1-nitro-2,4-difluorobenzene

>  <Formula> (124)
C6H3F2NO2

>  <LogP> (124)
1.89

>  <LUMO> (124)
-1.596

>  <MOL_ID> (124)
124

>  <Activity> (124)
-1.66

$$$$
2-nitro-4,5-dihydropyrene
csChmFindW1207992328
[comments]
 19 22  0     0  0  0  0  0  0  1 V2000
   -0.0000    2.0988    0.0000 C   0  0  0  0  0  0  0  0  0  0
   -0.0000    0.6996    0.0000 C   0  0  0  0  0  0  0  0  0  0
    1.1660   -0.0000    0.0000 C   0  0  0  0  0  0  0  0  0  0
    2.3787    0.6996    0.0000 C   0  0  0  0  0  0  0  0  0  0
    2.3787    2.0988    0.0000 C   0  0  0  0  0  0  0  0  0  0
    1.1660    2.7985    0.0000 C   0  0  0  0  0  0  0  0  0  0
    3.5913    2.7985    0.0000 C   0  0  0  0  0  0  0  0  0  0
    3.5913    4.1977    0.0000 C   0  0  0  0  0  0  0  0  0  0
    2.3787    4.8973    0.0000 C   0  0  0  0  0  0  0  0  0  0
    1.1660    4.1977    0.0000 C   0  0  0  0  0  0  0  0  0  0
    4.8040    2.0988    0.0000 C   0  0  0  0  0  0  0  0  0  0
    6.0167    2.7985    0.0000 C   0  0  0  0  0  0  0  0  0  0
    6.0167    4.1977    0.0000 C   0  0  0  0  0  0  0  0  0  0
    4.8040    4.8973    0.0000 C   0  0  0  0  0  0  0  0  0  0
    3.5913   -0.0000    0.0000 C   0  0  0  0  0  0  0  0  0  0
    4.8040    0.6996    0.0000 C   0  0  0  0  0  0  0  0  0  0
    7.2293    4.8973    0.0000 N   0  3  0  0  0  0  0  0  0  0
    8.4420    4.1977    0.0000 O   0  5  0  0  0  0  0  0  0  0
    7.2293    6.2965    0.0000 O   0  0  0  0  0  0  0  0  0  0
  1  2  4  0  0  0  0
  2  3  4  0  0  0  0
  3  4  4  0  0  0  0
  4  5  4  0  0  0  0
  5  6  4  0  0  0  0
  1  6  4  0  0  0  0
  5  7  4  0  0  0  0
  7  8  4  0  0  0  0
  8  9  4  0  0  0  0
  9 10  4  0  0  0  0
  6 10  4  0  0  0  0
  7 11  4  0  0  0  0
 11 12  4  0  0  0  0
 12 13  4  0  0  0  0
 13 14  4  0  0  0  0
  8 14  4  0  0  0  0
  4 15  1  0  0  0  0
 15 16  1  0  0  0  0
 11 16  1  0  0  0  0
 13 17  1  0  0  0  0
 17 18  1  0  0  0  0
 17 19  2  0  0  0  0
M  END
>  <Compound Name> (125)
2-nitro-4,5-dihydropyrene

>  <Formula> (125)
C16H11NO2

>  <LogP> (125)
4.99

>  <LUMO> (125)
-1.256

>  <MOL_ID> (125)
125

>  <Activity> (125)
3.27

$$$$
1,7-dinitrophenazine
csChmFindW1207992328
[comments]
 20 22  0     0  0  0  0  0  0  1 V2000
    3.5913    4.1977    0.0000 C   0  0  0  0  0  0  0  0  0  0
    2.3787    3.4981    0.0000 C   0  0  0  0  0  0  0  0  0  0
    2.3787    2.0988    0.0000 C   0  0  0  0  0  0  0  0  0  0
    3.5913    1.3992    0.0000 C   0  0  0  0  0  0  0  0  0  0
    4.8040    2.0988    0.0000 C   0  0  0  0  0  0  0  0  0  0
    4.8040    3.4981    0.0000 C   0  0  0  0  0  0  0  0  0  0
    6.0167    1.3992    0.0000 N   0  0  0  0  0  0  0  0  0  0
    7.2293    2.0988    0.0000 C   0  0  0  0  0  0  0  0  0  0
    7.2293    3.4981    0.0000 C   0  0  0  0  0  0  0  0  0  0
    6.0167    4.1977    0.0000 N   0  0  0  0  0  0  0  0  0  0
    8.4420    1.3992    0.0000 C   0  0  0  0  0  0  0  0  0  0
    9.6547    2.0988    0.0000 C   0  0  0  0  0  0  0  0  0  0
    9.6547    3.4981    0.0000 C   0  0  0  0  0  0  0  0  0  0
    8.4420    4.1977    0.0000 C   0  0  0  0  0  0  0  0  0  0
    8.4420    5.5969    0.0000 N   0  3  0  0  0  0  0  0  0  0
    9.6547    6.2965    0.0000 O   0  5  0  0  0  0  0  0  0  0
    7.2293    6.2965    0.0000 O   0  0  0  0  0  0  0  0  0  0
    1.1660    1.3992    0.0000 N   0  3  0  0  0  0  0  0  0  0
    0.0000    2.0988    0.0000 O   0  5  0  0  0  0  0  0  0  0
    1.1660    0.0000    0.0000 O   0  0  0  0  0  0  0  0  0  0
  1  2  4  0  0  0  0
  2  3  4  0  0  0  0
  3  4  4  0  0  0  0
  4  5  4  0  0  0  0
  5  6  4  0  0  0  0
  1  6  4  0  0  0  0
  5  7  4  0  0  0  0
  7  8  4  0  0  0  0
  8  9  4  0  0  0  0
  9 10  4  0  0  0  0
  6 10  4  0  0  0  0
  8 11  4  0  0  0  0
 11 12  4  0  0  0  0
 12 13  4  0  0  0  0
 13 14  4  0  0  0  0
  9 14  4  0  0  0  0
 14 15  1  0  0  0  0
 15 16  1  0  0  0  0
 15 17  2  0  0  0  0
  3 18  1  0  0  0  0
 18 19  1  0  0  0  0
 18 20  2  0  0  0  0
M  END
>  <Compound Name> (126)
1,7-dinitrophenazine

>  <Formula> (126)
C12H6N4O4

>  <LogP> (126)
2.29

>  <LUMO> (126)
-2.718

>  <MOL_ID> (126)
126

>  <Activity> (126)
2.02

$$$$
3,4,3'-trinitrobiphenyl
csChmFindW1207992328
[comments]
 21 22  0     0  0  0  0  0  0  1 V2000
    2.0522    2.4253    0.0000 C   0  0  0  0  0  0  0  0  0  0
    1.3526    1.2127    0.0000 C   0  0  0  0  0  0  0  0  0  0
    2.0522    0.0000    0.0000 C   0  0  0  0  0  0  0  0  0  0
    3.4514    0.0000    0.0000 C   0  0  0  0  0  0  0  0  0  0
    4.1510    1.2127    0.0000 C   0  0  0  0  0  0  0  0  0  0
    3.4514    2.4253    0.0000 C   0  0  0  0  0  0  0  0  0  0
    5.5502    1.2127    0.0000 C   0  0  0  0  0  0  0  0  0  0
    6.2499    0.0000    0.0000 C   0  0  0  0  0  0  0  0  0  0
    7.6491    0.0000    0.0000 C   0  0  0  0  0  0  0  0  0  0
    8.3487    1.2127    0.0000 C   0  0  0  0  0  0  0  0  0  0
    7.6491    2.4253    0.0000 C   0  0  0  0  0  0  0  0  0  0
    6.2499    2.4253    0.0000 C   0  0  0  0  0  0  0  0  0  0
    8.3487    3.6380    0.0000 N   0  3  0  0  0  0  0  0  0  0
    9.7479    3.6380    0.0000 O   0  5  0  0  0  0  0  0  0  0
    7.6491    4.8040    0.0000 O   0  0  0  0  0  0  0  0  0  0
    9.7479    1.2127    0.0000 N   0  3  0  0  0  0  0  0  0  0
   10.4475    0.0000    0.0000 O   0  5  0  0  0  0  0  0  0  0
   10.4475    2.4253    0.0000 O   0  0  0  0  0  0  0  0  0  0
    1.3526    3.6380    0.0000 N   0  3  0  0  0  0  0  0  0  0
    2.0522    4.8040    0.0000 O   0  5  0  0  0  0  0  0  0  0
   -0.0000    3.6380    0.0000 O   0  0  0  0  0  0  0  0  0  0
  1  2  4  0  0  0  0
  2  3  4  0  0  0  0
  3  4  4  0  0  0  0
  4  5  4  0  0  0  0
  5  6  4  0  0  0  0
  1  6  4  0  0  0  0
  5  7  1  0  0  0  0
  7  8  4  0  0  0  0
  8  9  4  0  0  0  0
  9 10  4  0  0  0  0
 10 11  4  0  0  0  0
 11 12  4  0  0  0  0
  7 12  4  0  0  0  0
 11 13  1  0  0  0  0
 13 14  1  0  0  0  0
 13 15  2  0  0  0  0
 10 16  1  0  0  0  0
 16 17  1  0  0  0  0
 16 18  2  0  0  0  0
  1 19  1  0  0  0  0
 19 20  1  0  0  0  0
 19 21  2  0  0  0  0
M  END
>  <Compound Name> (127)
3,4,3'-trinitrobiphenyl

>  <Formula> (127)
C12H7N3O6

>  <LogP> (127)
3.26

>  <LUMO> (127)
-2.196

>  <MOL_ID> (127)
127

>  <Activity> (127)
1.92

$$$$
5-nitroacenaphthylene
csChmFindW1207992328
[comments]
 15 17  0     0  0  0  0  0  0  1 V2000
    2.3787    4.1977    0.0000 C   0  0  0  0  0  0  0  0  0  0
    2.3787    2.7984    0.0000 C   0  0  0  0  0  0  0  0  0  0
    3.5913    2.0988    0.0000 C   0  0  0  0  0  0  0  0  0  0
    4.8040    2.7984    0.0000 C   0  0  0  0  0  0  0  0  0  0
    4.8040    4.1977    0.0000 C   0  0  0  0  0  0  0  0  0  0
    3.5913    4.8973    0.0000 C   0  0  0  0  0  0  0  0  0  0
    1.1660    4.8973    0.0000 C   0  0  0  0  0  0  0  0  0  0
   -0.0000    4.1977    0.0000 C   0  0  0  0  0  0  0  0  0  0
   -0.0000    2.7984    0.0000 C   0  0  0  0  0  0  0  0  0  0
    1.1660    2.0988    0.0000 C   0  0  0  0  0  0  0  0  0  0
    3.5913    6.2965    0.0000 C   0  0  0  0  0  0  0  0  0  0
    1.1660    6.2965    0.0000 C   0  0  0  0  0  0  0  0  0  0
    3.5913    0.6996    0.0000 N   0  3  0  0  0  0  0  0  0  0
    2.3787   -0.0000    0.0000 O   0  5  0  0  0  0  0  0  0  0
    4.8040   -0.0000    0.0000 O   0  0  0  0  0  0  0  0  0  0
  1  2  4  0  0  0  0
  2  3  4  0  0  0  0
  3  4  4  0  0  0  0
  4  5  4  0  0  0  0
  5  6  4  0  0  0  0
  1  6  4  0  0  0  0
  1  7  4  0  0  0  0
  7  8  4  0  0  0  0
  8  9  4  0  0  0  0
  9 10  4  0  0  0  0
  2 10  4  0  0  0  0
  6 11  1  0  0  0  0
  7 12  1  0  0  0  0
 11 12  2  0  0  0  0
  3 13  1  0  0  0  0
 13 14  1  0  0  0  0
 13 15  2  0  0  0  0
M  END
>  <Compound Name> (128)
5-nitroacenaphthylene

>  <Formula> (128)
C12H7NO2

>  <LogP> (128)
3.36

>  <LUMO> (128)
-2.149

>  <MOL_ID> (128)
128

>  <Activity> (128)
1.91

$$$$
2,4-dinitrophenylhydrazine
csChmFindW1207992328
[comments]
 14 14  0     0  0  0  0  0  0  1 V2000
    2.0533    1.2133    0.0000 C   0  0  0  0  0  0  0  0  0  0
    2.7533   -0.0000    0.0000 C   0  0  0  0  0  0  0  0  0  0
    4.1533   -0.0000    0.0000 C   0  0  0  0  0  0  0  0  0  0
    4.8533    1.2133    0.0000 C   0  0  0  0  0  0  0  0  0  0
    4.1533    2.4267    0.0000 C   0  0  0  0  0  0  0  0  0  0
    2.7533    2.4267    0.0000 C   0  0  0  0  0  0  0  0  0  0
    6.2533    1.2133    0.0000 N   0  0  0  1  0  0  0  0  0  0
    6.9533    2.4267    0.0000 N   0  0  0  2  0  0  0  0  0  0
    0.6533    1.2133    0.0000 N   0  3  0  0  0  0  0  0  0  0
    0.0000    2.4267    0.0000 O   0  5  0  0  0  0  0  0  0  0
    0.0000   -0.0000    0.0000 O   0  0  0  0  0  0  0  0  0  0
    4.8533    3.6400    0.0000 N   0  3  0  0  0  0  0  0  0  0
    6.2533    3.6400    0.0000 O   0  5  0  0  0  0  0  0  0  0
    4.1533    4.8067    0.0000 O   0  0  0  0  0  0  0  0  0  0
  1  2  4  0  0  0  0
  2  3  4  0  0  0  0
  3  4  4  0  0  0  0
  4  5  4  0  0  0  0
  5  6  4  0  0  0  0
  1  6  4  0  0  0  0
  4  7  1  0  0  0  0
  7  8  1  0  0  0  0
  1  9  1  0  0  0  0
  9 10  1  0  0  0  0
  9 11  2  0  0  0  0
  5 12  1  0  0  0  0
 12 13  1  0  0  0  0
 12 14  2  0  0  0  0
M  END
>  <Compound Name> (129)
2,4-dinitrophenylhydrazine

>  <Formula> (129)
C6H6N4O4

>  <LogP> (129)
1.46

>  <LUMO> (129)
-1.592

>  <MOL_ID> (129)
129

>  <Activity> (129)
-0.07

$$$$
2-nitroanisole
csChmFindW1207992328
[comments]
 11 11  0     0  0  0  0  0  0  1 V2000
   -0.0000    1.2133    0.0000 C   0  0  0  0  0  0  0  0  0  0
    0.6533   -0.0000    0.0000 C   0  0  0  0  0  0  0  0  0  0
    2.0533   -0.0000    0.0000 C   0  0  0  0  0  0  0  0  0  0
    2.7533    1.2133    0.0000 C   0  0  0  0  0  0  0  0  0  0
    2.0533    2.4267    0.0000 C   0  0  0  0  0  0  0  0  0  0
    0.6533    2.4267    0.0000 C   0  0  0  0  0  0  0  0  0  0
    4.1533    1.2133    0.0000 O   0  0  0  0  0  0  0  0  0  0
    4.8533    2.4267    0.0000 C   0  0  0  0  0  0  0  0  0  0
    2.7533    3.6400    0.0000 N   0  3  0  0  0  0  0  0  0  0
    4.1533    3.6400    0.0000 O   0  5  0  0  0  0  0  0  0  0
    2.0533    4.8067    0.0000 O   0  0  0  0  0  0  0  0  0  0
  1  2  4  0  0  0  0
  2  3  4  0  0  0  0
  3  4  4  0  0  0  0
  4  5  4  0  0  0  0
  5  6  4  0  0  0  0
  1  6  4  0  0  0  0
  4  7  1  0  0  0  0
  7  8  1  0  0  0  0
  5  9  1  0  0  0  0
  9 10  1  0  0  0  0
  9 11  2  0  0  0  0
M  END
>  <Compound Name> (130)
2-nitroanisole

>  <Formula> (130)
C7H7NO3

>  <LogP> (130)
1.73

>  <LUMO> (130)
-0.93

>  <MOL_ID> (130)
130

>  <Activity> (130)
-2.7

$$$$
4-nitrochalcone
csChmFindW1207992328
[comments]
 19 20  0     0  0  0  0  0  0  1 V2000
   -0.0000    1.2133    0.0000 C   0  0  0  0  0  0  0  0  0  0
    0.6533   -0.0000    0.0000 C   0  0  0  0  0  0  0  0  0  0
    2.0533   -0.0000    0.0000 C   0  0  0  0  0  0  0  0  0  0
    2.7533    1.2133    0.0000 C   0  0  0  0  0  0  0  0  0  0
    2.0533    2.4266    0.0000 C   0  0  0  0  0  0  0  0  0  0
    0.6533    2.4266    0.0000 C   0  0  0  0  0  0  0  0  0  0
    4.1533    1.2133    0.0000 C   0  0  0  0  0  0  0  0  0  0
    4.8533    2.4266    0.0000 C   0  0  0  0  0  0  0  0  0  0
    6.2533    2.4266    0.0000 C   0  0  0  0  0  0  0  0  0  0
    6.2533    3.7800    0.0000 O   0  0  0  0  0  0  0  0  0  0
    7.6533    2.4266    0.0000 C   0  0  0  0  0  0  0  0  0  0
    8.3533    1.2133    0.0000 C   0  0  0  0  0  0  0  0  0  0
    9.7533    1.2133    0.0000 C   0  0  0  0  0  0  0  0  0  0
   10.4533    2.4266    0.0000 C   0  0  0  0  0  0  0  0  0  0
    9.7533    3.6400    0.0000 C   0  0  0  0  0  0  0  0  0  0
    8.3533    3.6400    0.0000 C   0  0  0  0  0  0  0  0  0  0
   11.8533    2.4266    0.0000 N   0  3  0  0  0  0  0  0  0  0
   12.5533    1.2133    0.0000 O   0  5  0  0  0  0  0  0  0  0
   12.5533    3.6400    0.0000 O   0  0  0  0  0  0  0  0  0  0
  1  2  4  0  0  0  0
  2  3  4  0  0  0  0
  3  4  4  0  0  0  0
  4  5  4  0  0  0  0
  5  6  4  0  0  0  0
  1  6  4  0  0  0  0
  4  7  1  0  0  0  0
  7  8  2  0  0  0  0
  8  9  1  0  0  0  0
  9 10  2  0  0  0  0
  9 11  1  0  0  0  0
 11 12  4  0  0  0  0
 12 13  4  0  0  0  0
 13 14  4  0  0  0  0
 14 15  4  0  0  0  0
 15 16  4  0  0  0  0
 11 16  4  0  0  0  0
 14 17  1  0  0  0  0
 17 18  1  0  0  0  0
 17 19  2  0  0  0  0
M  END
>  <Compound Name> (131)
4-nitrochalcone

>  <Formula> (131)
C15H11NO3

>  <LogP> (131)
2.83

>  <LUMO> (131)
-1.538

>  <MOL_ID> (131)
131

>  <Activity> (131)
-1.15

$$$$
2-nitrobenzaldehyde
csChmFindW1207992328
[comments]
 11 11  0     0  0  0  0  0  0  1 V2000
    0.6533   -0.0000    0.0000 C   0  0  0  0  0  0  0  0  0  0
    2.0533   -0.0000    0.0000 C   0  0  0  0  0  0  0  0  0  0
    2.7533    1.2133    0.0000 C   0  0  0  0  0  0  0  0  0  0
    2.0533    2.4266    0.0000 C   0  0  0  0  0  0  0  0  0  0
    0.6533    2.4266    0.0000 C   0  0  0  0  0  0  0  0  0  0
   -0.0000    1.2133    0.0000 C   0  0  0  0  0  0  0  0  0  0
    4.1533    1.2133    0.0000 C   0  0  0  0  0  0  0  0  0  0
    4.8533    2.4266    0.0000 O   0  0  0  0  0  0  0  0  0  0
    2.7533    3.6400    0.0000 N   0  3  0  0  0  0  0  0  0  0
    4.1533    3.6400    0.0000 O   0  5  0  0  0  0  0  0  0  0
    2.0533    4.8066    0.0000 O   0  0  0  0  0  0  0  0  0  0
  1  2  4  0  0  0  0
  2  3  4  0  0  0  0
  3  4  4  0  0  0  0
  4  5  4  0  0  0  0
  5  6  4  0  0  0  0
  1  6  4  0  0  0  0
  3  7  1  0  0  0  0
  7  8  2  0  0  0  0
  4  9  1  0  0  0  0
  9 10  1  0  0  0  0
  9 11  2  0  0  0  0
M  END
>  <Compound Name> (132)
2-nitrobenzaldehyde

>  <Formula> (132)
C7H5NO3

>  <LogP> (132)
1.74

>  <LUMO> (132)
-1.499

>  <MOL_ID> (132)
132

>  <Activity> (132)
-1.92

$$$$
2-nitro-1,3,7,8-tetrachlorodibenzo-1,4-dioxin
csChmFindW1207992328
[comments]
 21 23  0     0  0  0  0  0  0  1 V2000
    1.1660    2.0988    0.0000 C   0  0  0  0  0  0  0  0  0  0
    1.1660    0.6996    0.0000 C   0  0  0  0  0  0  0  0  0  0
    2.3787    0.0000    0.0000 C   0  0  0  0  0  0  0  0  0  0
    3.5913    0.6996    0.0000 C   0  0  0  0  0  0  0  0  0  0
    3.5913    2.0988    0.0000 C   0  0  0  0  0  0  0  0  0  0
    2.3787    2.7985    0.0000 C   0  0  0  0  0  0  0  0  0  0
    4.8040    0.0000    0.0000 O   0  0  0  0  0  0  0  0  0  0
    6.0167    0.6996    0.0000 C   0  0  0  0  0  0  0  0  0  0
    6.0167    2.0988    0.0000 C   0  0  0  0  0  0  0  0  0  0
    4.8040    2.7985    0.0000 O   0  0  0  0  0  0  0  0  0  0
    7.2293    0.0000    0.0000 C   0  0  0  0  0  0  0  0  0  0
    8.4420    0.6996    0.0000 C   0  0  0  0  0  0  0  0  0  0
    8.4420    2.0988    0.0000 C   0  0  0  0  0  0  0  0  0  0
    7.2293    2.7985    0.0000 C   0  0  0  0  0  0  0  0  0  0
    7.2293    4.1977    0.0000 Cl  0  0  0  0  0  0  0  0  0  0
    9.6547    0.0000    0.0000 Cl  0  0  0  0  0  0  0  0  0  0
    0.0000    0.0000    0.0000 Cl  0  0  0  0  0  0  0  0  0  0
    0.0000    2.7985    0.0000 Cl  0  0  0  0  0  0  0  0  0  0
    9.6547    2.7985    0.0000 N   0  3  0  0  0  0  0  0  0  0
   10.8673    2.0988    0.0000 O   0  5  0  0  0  0  0  0  0  0
    9.6547    4.1977    0.0000 O   0  0  0  0  0  0  0  0  0  0
  1  2  4  0  0  0  0
  2  3  4  0  0  0  0
  3  4  4  0  0  0  0
  4  5  4  0  0  0  0
  5  6  4  0  0  0  0
  1  6  4  0  0  0  0
  4  7  1  0  0  0  0
  7  8  1  0  0  0  0
  8  9  4  0  0  0  0
  9 10  1  0  0  0  0
  5 10  1  0  0  0  0
  8 11  4  0  0  0  0
 11 12  4  0  0  0  0
 12 13  4  0  0  0  0
 13 14  4  0  0  0  0
  9 14  4  0  0  0  0
 14 15  1  0  0  0  0
 12 16  1  0  0  0  0
  2 17  1  0  0  0  0
  1 18  1  0  0  0  0
 13 19  1  0  0  0  0
 19 20  1  0  0  0  0
 19 21  2  0  0  0  0
M  END
>  <Compound Name> (133)
2-nitro-1,3,7,8-tetrachlorodibenzo-1,4-dioxin

>  <Formula> (133)
C12H3Cl4NO4

>  <LogP> (133)
7.13

>  <LUMO> (133)
-1.492

>  <MOL_ID> (133)
133

>  <Activity> (133)
-1.4

$$$$
2,7-dinitro-4,5-dihydropyrene
csChmFindW1207992328
[comments]
 22 25  0     0  0  0  0  0  0  1 V2000
    2.3787    3.4981    0.0000 C   0  0  0  0  0  0  0  0  0  0
    2.3787    2.0988    0.0000 C   0  0  0  0  0  0  0  0  0  0
    3.5913    1.3992    0.0000 C   0  0  0  0  0  0  0  0  0  0
    4.8040    2.0988    0.0000 C   0  0  0  0  0  0  0  0  0  0
    4.8040    3.4981    0.0000 C   0  0  0  0  0  0  0  0  0  0
    3.5913    4.1977    0.0000 C   0  0  0  0  0  0  0  0  0  0
    6.0167    4.1977    0.0000 C   0  0  0  0  0  0  0  0  0  0
    6.0167    5.5969    0.0000 C   0  0  0  0  0  0  0  0  0  0
    4.8040    6.2965    0.0000 C   0  0  0  0  0  0  0  0  0  0
    3.5913    5.5969    0.0000 C   0  0  0  0  0  0  0  0  0  0
    6.0167    1.3992    0.0000 C   0  0  0  0  0  0  0  0  0  0
    7.2293    2.0988    0.0000 C   0  0  0  0  0  0  0  0  0  0
    7.2293    3.4981    0.0000 C   0  0  0  0  0  0  0  0  0  0
    8.4420    4.1977    0.0000 C   0  0  0  0  0  0  0  0  0  0
    8.4420    5.5969    0.0000 C   0  0  0  0  0  0  0  0  0  0
    7.2293    6.2965    0.0000 C   0  0  0  0  0  0  0  0  0  0
    9.6546    6.2965    0.0000 N   0  3  0  0  0  0  0  0  0  0
   10.8673    5.5969    0.0000 O   0  5  0  0  0  0  0  0  0  0
    9.6546    7.6957    0.0000 O   0  0  0  0  0  0  0  0  0  0
    1.1660    1.3992    0.0000 N   0  3  0  0  0  0  0  0  0  0
    0.0000    2.0988    0.0000 O   0  5  0  0  0  0  0  0  0  0
    1.1660   -0.0000    0.0000 O   0  0  0  0  0  0  0  0  0  0
  1  2  4  0  0  0  0
  2  3  4  0  0  0  0
  3  4  4  0  0  0  0
  4  5  4  0  0  0  0
  5  6  4  0  0  0  0
  1  6  4  0  0  0  0
  5  7  4  0  0  0  0
  7  8  4  0  0  0  0
  8  9  4  0  0  0  0
  9 10  4  0  0  0  0
  6 10  4  0  0  0  0
  4 11  1  0  0  0  0
 11 12  1  0  0  0  0
 12 13  1  0  0  0  0
  7 13  4  0  0  0  0
 13 14  4  0  0  0  0
 14 15  4  0  0  0  0
 15 16  4  0  0  0  0
  8 16  4  0  0  0  0
 15 17  1  0  0  0  0
 17 18  1  0  0  0  0
 17 19  2  0  0  0  0
  2 20  1  0  0  0  0
 20 21  1  0  0  0  0
 20 22  2  0  0  0  0
M  END
>  <Compound Name> (134)
2,7-dinitro-4,5-dihydropyrene

>  <Formula> (134)
C16H10N2O4

>  <LogP> (134)
4.73

>  <LUMO> (134)
-1.951

>  <MOL_ID> (134)
134

>  <Activity> (134)
4.25

$$$$
3-chloro-4-fluoronitrobenzene
csChmFindW1207992328
[comments]
 11 11  0     0  0  0  0  0  0  1 V2000
    1.3526    1.2127    0.0000 C   0  0  0  0  0  0  0  0  0  0
    2.0522    0.0000    0.0000 C   0  0  0  0  0  0  0  0  0  0
    3.4514    0.0000    0.0000 C   0  0  0  0  0  0  0  0  0  0
    4.1510    1.2127    0.0000 C   0  0  0  0  0  0  0  0  0  0
    3.4514    2.4253    0.0000 C   0  0  0  0  0  0  0  0  0  0
    2.0522    2.4253    0.0000 C   0  0  0  0  0  0  0  0  0  0
    5.5502    1.2127    0.0000 N   0  3  0  0  0  0  0  0  0  0
    6.2498    0.0000    0.0000 O   0  5  0  0  0  0  0  0  0  0
    6.2498    2.4253    0.0000 O   0  0  0  0  0  0  0  0  0  0
    1.3526    3.6380    0.0000 Cl  0  0  0  0  0  0  0  0  0  0
   -0.0000    1.2127    0.0000 F   0  0  0  0  0  0  0  0  0  0
  1  2  4  0  0  0  0
  2  3  4  0  0  0  0
  3  4  4  0  0  0  0
  4  5  4  0  0  0  0
  5  6  4  0  0  0  0
  1  6  4  0  0  0  0
  4  7  1  0  0  0  0
  7  8  1  0  0  0  0
  7  9  2  0  0  0  0
  6 10  1  0  0  0  0
  1 11  1  0  0  0  0
M  END
>  <Compound Name> (135)
3-chloro-4-fluoronitrobenzene

>  <Formula> (135)
C6H3ClFNO2

>  <LogP> (135)
2.74

>  <LUMO> (135)
-1.562

>  <MOL_ID> (135)
135

>  <Activity> (135)
-1.21

$$$$
1-hydroxy-3-nitropyrene
csChmFindW1207992328
[comments]
 20 23  0     0  0  0  0  0  0  1 V2000
   -0.0000    2.0988    0.0000 C   0  0  0  0  0  0  0  0  0  0
   -0.0000    0.6996    0.0000 C   0  0  0  0  0  0  0  0  0  0
    1.1660   -0.0000    0.0000 C   0  0  0  0  0  0  0  0  0  0
    2.3787    0.6996    0.0000 C   0  0  0  0  0  0  0  0  0  0
    2.3787    2.0988    0.0000 C   0  0  0  0  0  0  0  0  0  0
    1.1660    2.7984    0.0000 C   0  0  0  0  0  0  0  0  0  0
    3.5913    2.7984    0.0000 C   0  0  0  0  0  0  0  0  0  0
    3.5913    4.1977    0.0000 C   0  0  0  0  0  0  0  0  0  0
    2.3787    4.8973    0.0000 C   0  0  0  0  0  0  0  0  0  0
    1.1660    4.1977    0.0000 C   0  0  0  0  0  0  0  0  0  0
    4.8040    2.0988    0.0000 C   0  0  0  0  0  0  0  0  0  0
    6.0167    2.7984    0.0000 C   0  0  0  0  0  0  0  0  0  0
    6.0167    4.1977    0.0000 C   0  0  0  0  0  0  0  0  0  0
    4.8040    4.8973    0.0000 C   0  0  0  0  0  0  0  0  0  0
    3.5913   -0.0000    0.0000 C   0  0  0  0  0  0  0  0  0  0
    4.8040    0.6996    0.0000 C   0  0  0  0  0  0  0  0  0  0
    4.8040    6.2965    0.0000 O   0  0  0  0  0  0  0  0  0  0
    7.2293    2.0988    0.0000 N   0  3  0  0  0  0  0  0  0  0
    7.2293    0.6996    0.0000 O   0  5  0  0  0  0  0  0  0  0
    8.4420    2.7984    0.0000 O   0  0  0  0  0  0  0  0  0  0
  1  2  4  0  0  0  0
  2  3  4  0  0  0  0
  3  4  4  0  0  0  0
  4  5  4  0  0  0  0
  5  6  4  0  0  0  0
  1  6  4  0  0  0  0
  5  7  4  0  0  0  0
  7  8  4  0  0  0  0
  8  9  4  0  0  0  0
  9 10  4  0  0  0  0
  6 10  4  0  0  0  0
  7 11  4  0  0  0  0
 11 12  4  0  0  0  0
 12 13  4  0  0  0  0
 13 14  4  0  0  0  0
  8 14  4  0  0  0  0
  4 15  4  0  0  0  0
 15 16  4  0  0  0  0
 11 16  4  0  0  0  0
 14 17  1  0  0  0  0
 12 18  1  0  0  0  0
 18 19  1  0  0  0  0
 18 20  2  0  0  0  0
M  END
>  <Compound Name> (136)
1-hydroxy-3-nitropyrene

>  <Formula> (136)
C16H9NO3

>  <LogP> (136)
4.66

>  <LUMO> (136)
-1.685

>  <MOL_ID> (136)
136

>  <Activity> (136)
3.87

$$$$
2,3-dinitrofluoranthene
csChmFindW1207992328
[comments]
 22 25  0     0  0  0  0  0  0  1 V2000
    2.3787    4.1977    0.0000 C   0  0  0  0  0  0  0  0  0  0
    2.3787    2.7985    0.0000 C   0  0  0  0  0  0  0  0  0  0
    3.5914    2.0988    0.0000 C   0  0  0  0  0  0  0  0  0  0
    4.8040    2.7985    0.0000 C   0  0  0  0  0  0  0  0  0  0
    4.8040    4.1977    0.0000 C   0  0  0  0  0  0  0  0  0  0
    3.5914    4.8973    0.0000 C   0  0  0  0  0  0  0  0  0  0
    1.1660    4.8973    0.0000 C   0  0  0  0  0  0  0  0  0  0
   -0.0000    4.1977    0.0000 C   0  0  0  0  0  0  0  0  0  0
   -0.0000    2.7985    0.0000 C   0  0  0  0  0  0  0  0  0  0
    1.1660    2.0988    0.0000 C   0  0  0  0  0  0  0  0  0  0
    3.0783    6.2965    0.0000 C   0  0  0  0  0  0  0  0  0  0
    1.6324    6.2965    0.0000 C   0  0  0  0  0  0  0  0  0  0
    3.8245    7.5558    0.0000 C   0  0  0  0  0  0  0  0  0  0
    3.0783    8.8151    0.0000 C   0  0  0  0  0  0  0  0  0  0
    1.6324    8.8151    0.0000 C   0  0  0  0  0  0  0  0  0  0
    0.9328    7.5558    0.0000 C   0  0  0  0  0  0  0  0  0  0
    6.0167    2.0988    0.0000 N   0  3  0  0  0  0  0  0  0  0
    6.0167    0.6996    0.0000 O   0  5  0  0  0  0  0  0  0  0
    7.2293    2.7985    0.0000 O   0  0  0  0  0  0  0  0  0  0
    3.5914    0.6996    0.0000 N   0  3  0  0  0  0  0  0  0  0
    2.3787    0.0000    0.0000 O   0  5  0  0  0  0  0  0  0  0
    4.8040    0.0000    0.0000 O   0  0  0  0  0  0  0  0  0  0
  1  2  4  0  0  0  0
  2  3  4  0  0  0  0
  3  4  4  0  0  0  0
  4  5  4  0  0  0  0
  5  6  4  0  0  0  0
  1  6  4  0  0  0  0
  1  7  4  0  0  0  0
  7  8  4  0  0  0  0
  8  9  4  0  0  0  0
  9 10  4  0  0  0  0
  2 10  4  0  0  0  0
  6 11  1  0  0  0  0
  7 12  1  0  0  0  0
 11 12  4  0  0  0  0
 11 13  4  0  0  0  0
 13 14  4  0  0  0  0
 14 15  4  0  0  0  0
 15 16  4  0  0  0  0
 12 16  4  0  0  0  0
  4 17  1  0  0  0  0
 17 18  1  0  0  0  0
 17 19  2  0  0  0  0
  3 20  1  0  0  0  0
 20 21  1  0  0  0  0
 20 22  2  0  0  0  0
M  END
>  <Compound Name> (137)
2,3-dinitrofluoranthene

>  <Formula> (137)
C16H8N2O4

>  <LogP> (137)
4.44

>  <LUMO> (137)
-2.263

>  <MOL_ID> (137)
137

>  <Activity> (137)
2.62

$$$$
2-methyl-6-nitroindazole
csChmFindW1207992328
[comments]
 13 14  0     0  0  0  0  0  0  1 V2000
    2.3787    2.0989    0.0000 C   0  0  0  0  0  0  0  0  0  0
    2.3787    0.6996    0.0000 C   0  0  0  0  0  0  0  0  0  0
    3.5914    0.0000    0.0000 C   0  0  0  0  0  0  0  0  0  0
    4.8040    0.6996    0.0000 C   0  0  0  0  0  0  0  0  0  0
    4.8040    2.0989    0.0000 C   0  0  0  0  0  0  0  0  0  0
    3.5914    2.7985    0.0000 C   0  0  0  0  0  0  0  0  0  0
    6.1566    0.2799    0.0000 C   0  0  0  0  0  0  0  0  0  0
    6.9495    1.3992    0.0000 N   0  0  0  0  0  0  0  0  0  0
    6.1566    2.5186    0.0000 N   0  0  0  0  0  0  0  0  0  0
    8.3487    1.3992    0.0000 C   0  0  0  0  0  0  0  0  0  0
    1.1660    2.7985    0.0000 N   0  3  0  0  0  0  0  0  0  0
    1.1660    4.1511    0.0000 O   0  5  0  0  0  0  0  0  0  0
    0.0000    2.0989    0.0000 O   0  0  0  0  0  0  0  0  0  0
  1  2  4  0  0  0  0
  2  3  4  0  0  0  0
  3  4  4  0  0  0  0
  4  5  4  0  0  0  0
  5  6  4  0  0  0  0
  1  6  4  0  0  0  0
  4  7  4  0  0  0  0
  7  8  4  0  0  0  0
  8  9  4  0  0  0  0
  5  9  4  0  0  0  0
  8 10  1  0  0  0  0
  1 11  1  0  0  0  0
 11 12  1  0  0  0  0
 11 13  2  0  0  0  0
M  END
>  <Compound Name> (138)
2-methyl-6-nitroindazole

>  <Formula> (138)
C8H8N3O2

>  <LogP> (138)
1.77

>  <LUMO> (138)
-1.157

>  <MOL_ID> (138)
138

>  <Activity> (138)
-0.41

$$$$
4-chloro-2-nitroaniline
csChmFindW1207992328
[comments]
 11 11  0     0  0  0  0  0  0  1 V2000
    1.3533    1.2133    0.0000 C   0  0  0  0  0  0  0  0  0  0
    2.0533    0.0000    0.0000 C   0  0  0  0  0  0  0  0  0  0
    3.4533    0.0000    0.0000 C   0  0  0  0  0  0  0  0  0  0
    4.1534    1.2133    0.0000 C   0  0  0  0  0  0  0  0  0  0
    3.4533    2.4267    0.0000 C   0  0  0  0  0  0  0  0  0  0
    2.0533    2.4267    0.0000 C   0  0  0  0  0  0  0  0  0  0
    5.5534    1.2133    0.0000 N   0  0  0  2  0  0  0  0  0  0
    0.0000    1.2133    0.0000 Cl  0  0  0  0  0  0  0  0  0  0
    4.1534    3.6400    0.0000 N   0  3  0  0  0  0  0  0  0  0
    5.5534    3.6400    0.0000 O   0  5  0  0  0  0  0  0  0  0
    3.4533    4.8067    0.0000 O   0  0  0  0  0  0  0  0  0  0
  1  2  4  0  0  0  0
  2  3  4  0  0  0  0
  3  4  4  0  0  0  0
  4  5  4  0  0  0  0
  5  6  4  0  0  0  0
  1  6  4  0  0  0  0
  4  7  1  0  0  0  0
  1  8  1  0  0  0  0
  5  9  1  0  0  0  0
  9 10  1  0  0  0  0
  9 11  2  0  0  0  0
M  END
>  <Compound Name> (139)
4-chloro-2-nitroaniline

>  <Formula> (139)
C6H5ClN2O2

>  <LogP> (139)
2.72

>  <LUMO> (139)
-1.019

>  <MOL_ID> (139)
139

>  <Activity> (139)
-2

$$$$
1,8-dinitronaphthalene
csChmFindW1207992328
[comments]
 16 17  0     0  0  0  0  0  0  1 V2000
    2.4267    2.1000    0.0000 C   0  0  0  0  0  0  0  0  0  0
    2.4267    0.7000    0.0000 C   0  0  0  0  0  0  0  0  0  0
    3.6400   -0.0000    0.0000 C   0  0  0  0  0  0  0  0  0  0
    4.8067    0.7000    0.0000 C   0  0  0  0  0  0  0  0  0  0
    4.8067    2.1000    0.0000 C   0  0  0  0  0  0  0  0  0  0
    3.6400    2.8000    0.0000 C   0  0  0  0  0  0  0  0  0  0
    1.1667    2.8000    0.0000 C   0  0  0  0  0  0  0  0  0  0
    0.0000    2.1000    0.0000 C   0  0  0  0  0  0  0  0  0  0
    0.0000    0.7000    0.0000 C   0  0  0  0  0  0  0  0  0  0
    1.1667   -0.0000    0.0000 C   0  0  0  0  0  0  0  0  0  0
    3.6400    4.2000    0.0000 N   0  3  0  0  0  0  0  0  0  0
    4.5267    4.8534    0.0000 O   0  5  0  0  0  0  0  0  0  0
    2.7067    4.7600    0.0000 O   0  0  0  0  0  0  0  0  0  0
    1.1667    4.2000    0.0000 N   0  3  0  0  0  0  0  0  0  0
    1.8667    4.7134    0.0000 O   0  5  0  0  0  0  0  0  0  0
    0.3267    4.7134    0.0000 O   0  0  0  0  0  0  0  0  0  0
  1  2  4  0  0  0  0
  2  3  4  0  0  0  0
  3  4  4  0  0  0  0
  4  5  4  0  0  0  0
  5  6  4  0  0  0  0
  1  6  4  0  0  0  0
  1  7  4  0  0  0  0
  7  8  4  0  0  0  0
  8  9  4  0  0  0  0
  9 10  4  0  0  0  0
  2 10  4  0  0  0  0
  6 11  1  0  0  0  0
 11 12  1  0  0  0  0
 11 13  2  0  0  0  0
  7 14  1  0  0  0  0
 14 15  1  0  0  0  0
 14 16  2  0  0  0  0
M  END
>  <Compound Name> (140)
1,8-dinitronaphthalene

>  <Formula> (140)
C10H6N2O4

>  <LogP> (140)
2.52

>  <LUMO> (140)
-1.751

>  <MOL_ID> (140)
140

>  <Activity> (140)
0.9

$$$$
2,3-dichloronitrobenzene
csChmFindW1207992328
[comments]
 11 11  0     0  0  0  0  0  0  1 V2000
   -0.0000    1.2133    0.0000 C   0  0  0  0  0  0  0  0  0  0
    0.6533    0.0000    0.0000 C   0  0  0  0  0  0  0  0  0  0
    2.0533    0.0000    0.0000 C   0  0  0  0  0  0  0  0  0  0
    2.7533    1.2133    0.0000 C   0  0  0  0  0  0  0  0  0  0
    2.0533    2.4266    0.0000 C   0  0  0  0  0  0  0  0  0  0
    0.6533    2.4266    0.0000 C   0  0  0  0  0  0  0  0  0  0
    4.1533    1.2133    0.0000 N   0  3  0  0  0  0  0  0  0  0
    4.8533    0.0000    0.0000 O   0  5  0  0  0  0  0  0  0  0
    4.8533    2.4266    0.0000 O   0  0  0  0  0  0  0  0  0  0
    2.7533    3.6400    0.0000 Cl  0  0  0  0  0  0  0  0  0  0
   -0.0000    3.6400    0.0000 Cl  0  0  0  0  0  0  0  0  0  0
  1  2  4  0  0  0  0
  2  3  4  0  0  0  0
  3  4  4  0  0  0  0
  4  5  4  0  0  0  0
  5  6  4  0  0  0  0
  1  6  4  0  0  0  0
  4  7  1  0  0  0  0
  7  8  1  0  0  0  0
  7  9  2  0  0  0  0
  5 10  1  0  0  0  0
  6 11  1  0  0  0  0
M  END
>  <Compound Name> (141)
2,3-dichloronitrobenzene

>  <Formula> (141)
C6H3Cl2NO2

>  <LogP> (141)
3.05

>  <LUMO> (141)
-1.228

>  <MOL_ID> (141)
141

>  <Activity> (141)
-1.51

$$$$
8-nitro-2,3,7-trichlorodibenzo-1,4-dioxin
csChmFindW1207992328
[comments]
 20 22  0     0  0  0  0  0  0  1 V2000
    2.3787    2.0988    0.0000 C   0  0  0  0  0  0  0  0  0  0
    2.3787    0.6996    0.0000 C   0  0  0  0  0  0  0  0  0  0
    3.5913    0.0000    0.0000 C   0  0  0  0  0  0  0  0  0  0
    4.8040    0.6996    0.0000 C   0  0  0  0  0  0  0  0  0  0
    4.8040    2.0988    0.0000 C   0  0  0  0  0  0  0  0  0  0
    3.5913    2.7984    0.0000 C   0  0  0  0  0  0  0  0  0  0
    6.0166    0.0000    0.0000 O   0  0  0  0  0  0  0  0  0  0
    7.2293    0.6996    0.0000 C   0  0  0  0  0  0  0  0  0  0
    7.2293    2.0988    0.0000 C   0  0  0  0  0  0  0  0  0  0
    6.0166    2.7984    0.0000 O   0  0  0  0  0  0  0  0  0  0
    8.4420    0.0000    0.0000 C   0  0  0  0  0  0  0  0  0  0
    9.6546    0.6996    0.0000 C   0  0  0  0  0  0  0  0  0  0
    9.6546    2.0988    0.0000 C   0  0  0  0  0  0  0  0  0  0
    8.4420    2.7984    0.0000 C   0  0  0  0  0  0  0  0  0  0
   10.8673    2.7984    0.0000 Cl  0  0  0  0  0  0  0  0  0  0
   10.8673    0.0000    0.0000 Cl  0  0  0  0  0  0  0  0  0  0
    1.1660    0.0000    0.0000 Cl  0  0  0  0  0  0  0  0  0  0
    1.1660    2.7984    0.0000 N   0  3  0  0  0  0  0  0  0  0
    1.1660    4.1977    0.0000 O   0  5  0  0  0  0  0  0  0  0
    0.0000    2.0988    0.0000 O   0  0  0  0  0  0  0  0  0  0
  1  2  4  0  0  0  0
  2  3  4  0  0  0  0
  3  4  4  0  0  0  0
  4  5  4  0  0  0  0
  5  6  4  0  0  0  0
  1  6  4  0  0  0  0
  4  7  1  0  0  0  0
  7  8  1  0  0  0  0
  8  9  4  0  0  0  0
  9 10  1  0  0  0  0
  5 10  1  0  0  0  0
  8 11  4  0  0  0  0
 11 12  4  0  0  0  0
 12 13  4  0  0  0  0
 13 14  4  0  0  0  0
  9 14  4  0  0  0  0
 13 15  1  0  0  0  0
 12 16  1  0  0  0  0
  2 17  1  0  0  0  0
  1 18  1  0  0  0  0
 18 19  1  0  0  0  0
 18 20  2  0  0  0  0
M  END
>  <Compound Name> (142)
8-nitro-2,3,7-trichlorodibenzo-1,4-dioxin

>  <Formula> (142)
C12H4Cl3NO4

>  <LogP> (142)
6.68

>  <LUMO> (142)
-1.474

>  <MOL_ID> (142)
142

>  <Activity> (142)
-0.53

$$$$
2-nitrophenetole
csChmFindW1207992328
[comments]
 12 12  0     0  0  0  0  0  0  1 V2000
    0.0000    1.2127    0.0000 C   0  0  0  0  0  0  0  0  0  0
    0.6996    0.0000    0.0000 C   0  0  0  0  0  0  0  0  0  0
    2.0988    0.0000    0.0000 C   0  0  0  0  0  0  0  0  0  0
    2.7985    1.2127    0.0000 C   0  0  0  0  0  0  0  0  0  0
    2.0988    2.4253    0.0000 C   0  0  0  0  0  0  0  0  0  0
    0.6996    2.4253    0.0000 C   0  0  0  0  0  0  0  0  0  0
    4.1977    1.2127    0.0000 N   0  3  0  0  0  0  0  0  0  0
    4.8973    0.0000    0.0000 O   0  5  0  0  0  0  0  0  0  0
    4.8973    2.4253    0.0000 O   0  0  0  0  0  0  0  0  0  0
    2.7985    3.6380    0.0000 O   0  0  0  0  0  0  0  0  0  0
    4.1977    3.6380    0.0000 C   0  0  0  0  0  0  0  0  0  0
    4.8973    4.8040    0.0000 C   0  0  0  0  0  0  0  0  0  0
  1  2  4  0  0  0  0
  2  3  4  0  0  0  0
  3  4  4  0  0  0  0
  4  5  4  0  0  0  0
  5  6  4  0  0  0  0
  1  6  4  0  0  0  0
  4  7  1  0  0  0  0
  7  8  1  0  0  0  0
  7  9  2  0  0  0  0
  5 10  1  0  0  0  0
 10 11  1  0  0  0  0
 11 12  1  0  0  0  0
M  END
>  <Compound Name> (143)
2-nitrophenetole

>  <Formula> (143)
C8H9NO3

>  <LogP> (143)
2.35

>  <LUMO> (143)
-1.046

>  <MOL_ID> (143)
143

>  <Activity> (143)
-2.22

$$$$
2,5-dichloronitrobenzene
csChmFindW1207992328
[comments]
 11 11  0     0  0  0  0  0  0  1 V2000
   -0.0000    2.4267    0.0000 C   0  0  0  0  0  0  0  0  0  0
    0.6533    1.2133    0.0000 C   0  0  0  0  0  0  0  0  0  0
    2.0533    1.2133    0.0000 C   0  0  0  0  0  0  0  0  0  0
    2.7533    2.4267    0.0000 C   0  0  0  0  0  0  0  0  0  0
    2.0533    3.6400    0.0000 C   0  0  0  0  0  0  0  0  0  0
    0.6533    3.6400    0.0000 C   0  0  0  0  0  0  0  0  0  0
    4.1533    2.4267    0.0000 N   0  3  0  0  0  0  0  0  0  0
    4.8533    1.2133    0.0000 O   0  5  0  0  0  0  0  0  0  0
    4.8533    3.6400    0.0000 O   0  0  0  0  0  0  0  0  0  0
    2.7533    4.8067    0.0000 Cl  0  0  0  0  0  0  0  0  0  0
   -0.0000   -0.0000    0.0000 Cl  0  0  0  0  0  0  0  0  0  0
  1  2  4  0  0  0  0
  2  3  4  0  0  0  0
  3  4  4  0  0  0  0
  4  5  4  0  0  0  0
  5  6  4  0  0  0  0
  1  6  4  0  0  0  0
  4  7  1  0  0  0  0
  7  8  1  0  0  0  0
  7  9  2  0  0  0  0
  5 10  1  0  0  0  0
  2 11  1  0  0  0  0
M  END
>  <Compound Name> (144)
2,5-dichloronitrobenzene

>  <Formula> (144)
C6H3Cl2NO2

>  <LogP> (144)
2.9

>  <LUMO> (144)
-1.288

>  <MOL_ID> (144)
144

>  <Activity> (144)
-1.54

$$$$
3-amino-4'-nitrobiphenyl
csChmFindW1207992328
[comments]
 16 17  0     0  0  0  0  0  0  1 V2000
    2.7518    2.4253    0.0000 C   0  0  0  0  0  0  0  0  0  0
    2.0522    1.2127    0.0000 C   0  0  0  0  0  0  0  0  0  0
    2.7518    0.0000    0.0000 C   0  0  0  0  0  0  0  0  0  0
    4.1510    0.0000    0.0000 C   0  0  0  0  0  0  0  0  0  0
    4.8506    1.2127    0.0000 C   0  0  0  0  0  0  0  0  0  0
    4.1510    2.4253    0.0000 C   0  0  0  0  0  0  0  0  0  0
    6.2499    1.2127    0.0000 C   0  0  0  0  0  0  0  0  0  0
    6.9495    0.0000    0.0000 C   0  0  0  0  0  0  0  0  0  0
    8.3487    0.0000    0.0000 C   0  0  0  0  0  0  0  0  0  0
    9.0483    1.2127    0.0000 C   0  0  0  0  0  0  0  0  0  0
    8.3487    2.4253    0.0000 C   0  0  0  0  0  0  0  0  0  0
    6.9495    2.4253    0.0000 C   0  0  0  0  0  0  0  0  0  0
    0.6530    1.2127    0.0000 N   0  3  0  0  0  0  0  0  0  0
   -0.0000    2.4253    0.0000 O   0  5  0  0  0  0  0  0  0  0
   -0.0000    0.0000    0.0000 O   0  0  0  0  0  0  0  0  0  0
    9.0483    3.6380    0.0000 N   0  0  0  2  0  0  0  0  0  0
  1  2  4  0  0  0  0
  2  3  4  0  0  0  0
  3  4  4  0  0  0  0
  4  5  4  0  0  0  0
  5  6  4  0  0  0  0
  1  6  4  0  0  0  0
  5  7  1  0  0  0  0
  7  8  4  0  0  0  0
  8  9  4  0  0  0  0
  9 10  4  0  0  0  0
 10 11  4  0  0  0  0
 11 12  4  0  0  0  0
  7 12  4  0  0  0  0
  2 13  1  0  0  0  0
 13 14  1  0  0  0  0
 13 15  2  0  0  0  0
 11 16  1  0  0  0  0
M  END
>  <Compound Name> (145)
3-amino-4'-nitrobiphenyl

>  <Formula> (145)
C12H10N2O2

>  <LogP> (145)
2.68

>  <LUMO> (145)
-1.178

>  <MOL_ID> (145)
145

>  <Activity> (145)
0.25

$$$$
4-amino-4'-nitrobiphenyl
csChmFindW1207992328
[comments]
 16 17  0     0  0  0  0  0  0  1 V2000
    2.7533    2.3800    0.0000 C   0  0  0  0  0  0  0  0  0  0
    2.0533    1.2133    0.0000 C   0  0  0  0  0  0  0  0  0  0
    2.7533   -0.0000    0.0000 C   0  0  0  0  0  0  0  0  0  0
    4.1533   -0.0000    0.0000 C   0  0  0  0  0  0  0  0  0  0
    4.8533    1.2133    0.0000 C   0  0  0  0  0  0  0  0  0  0
    4.1533    2.3800    0.0000 C   0  0  0  0  0  0  0  0  0  0
    6.2533    1.2133    0.0000 C   0  0  0  0  0  0  0  0  0  0
    6.9533   -0.0000    0.0000 C   0  0  0  0  0  0  0  0  0  0
    8.3533   -0.0000    0.0000 C   0  0  0  0  0  0  0  0  0  0
    9.0533    1.2133    0.0000 C   0  0  0  0  0  0  0  0  0  0
    8.3533    2.3800    0.0000 C   0  0  0  0  0  0  0  0  0  0
    6.9533    2.3800    0.0000 C   0  0  0  0  0  0  0  0  0  0
    0.6533    1.2133    0.0000 N   0  3  0  0  0  0  0  0  0  0
   -0.0000    2.3800    0.0000 O   0  5  0  0  0  0  0  0  0  0
   -0.0000   -0.0000    0.0000 O   0  0  0  0  0  0  0  0  0  0
   10.4533    1.2133    0.0000 N   0  0  0  2  0  0  0  0  0  0
  1  2  4  0  0  0  0
  2  3  4  0  0  0  0
  3  4  4  0  0  0  0
  4  5  4  0  0  0  0
  5  6  4  0  0  0  0
  1  6  4  0  0  0  0
  5  7  1  0  0  0  0
  7  8  4  0  0  0  0
  8  9  4  0  0  0  0
  9 10  4  0  0  0  0
 10 11  4  0  0  0  0
 11 12  4  0  0  0  0
  7 12  4  0  0  0  0
  2 13  1  0  0  0  0
 13 14  1  0  0  0  0
 13 15  2  0  0  0  0
 10 16  1  0  0  0  0
M  END
>  <Compound Name> (146)
4-amino-4'-nitrobiphenyl

>  <Formula> (146)
C12H10N2O2

>  <LogP> (146)
2.68

>  <LUMO> (146)
-1.102

>  <MOL_ID> (146)
146

>  <Activity> (146)
0.19

$$$$
2-methyl-5-nitrobenzimidazole
csChmFindW1207992328
[comments]
 13 14  0     0  0  0  0  0  0  1 V2000
    2.3787    2.0989    0.0000 C   0  0  0  0  0  0  0  0  0  0
    2.3787    0.6996    0.0000 C   0  0  0  0  0  0  0  0  0  0
    3.5914    0.0000    0.0000 C   0  0  0  0  0  0  0  0  0  0
    4.8040    0.6996    0.0000 C   0  0  0  0  0  0  0  0  0  0
    4.8040    2.0989    0.0000 C   0  0  0  0  0  0  0  0  0  0
    3.5914    2.7985    0.0000 C   0  0  0  0  0  0  0  0  0  0
    6.1566    0.2799    0.0000 N   0  0  0  1  0  0  0  0  0  0
    6.9495    1.3992    0.0000 C   0  0  0  0  0  0  0  0  0  0
    6.1566    2.5186    0.0000 N   0  0  0  0  0  0  0  0  0  0
    1.1660    2.7985    0.0000 N   0  3  0  0  0  0  0  0  0  0
    1.1660    4.1977    0.0000 O   0  5  0  0  0  0  0  0  0  0
    0.0000    2.0989    0.0000 O   0  0  0  0  0  0  0  0  0  0
    8.3487    1.3992    0.0000 C   0  0  0  0  0  0  0  0  0  0
  1  2  4  0  0  0  0
  2  3  4  0  0  0  0
  3  4  4  0  0  0  0
  4  5  4  0  0  0  0
  5  6  4  0  0  0  0
  1  6  4  0  0  0  0
  4  7  4  0  0  0  0
  7  8  4  0  0  0  0
  8  9  4  0  0  0  0
  5  9  4  0  0  0  0
  1 10  1  0  0  0  0
 10 11  1  0  0  0  0
 10 12  2  0  0  0  0
  8 13  1  0  0  0  0
M  END
>  <Compound Name> (147)
2-methyl-5-nitrobenzimidazole

>  <Formula> (147)
C8H6N3O2

>  <LogP> (147)
1.94

>  <LUMO> (147)
-0.937

>  <MOL_ID> (147)
147

>  <Activity> (147)
-0.51

$$$$
3-nitroacenaphthylene
csChmFindW1207992328
[comments]
 15 17  0     0  0  0  0  0  0  1 V2000
    2.3787    2.0988    0.0000 C   0  0  0  0  0  0  0  0  0  0
    2.3787    0.6996    0.0000 C   0  0  0  0  0  0  0  0  0  0
    3.5913    0.0000    0.0000 C   0  0  0  0  0  0  0  0  0  0
    4.8040    0.6996    0.0000 C   0  0  0  0  0  0  0  0  0  0
    4.8040    2.0988    0.0000 C   0  0  0  0  0  0  0  0  0  0
    3.5913    2.7985    0.0000 C   0  0  0  0  0  0  0  0  0  0
    1.1660    2.7985    0.0000 C   0  0  0  0  0  0  0  0  0  0
   -0.0000    2.0988    0.0000 C   0  0  0  0  0  0  0  0  0  0
   -0.0000    0.6996    0.0000 C   0  0  0  0  0  0  0  0  0  0
    1.1660    0.0000    0.0000 C   0  0  0  0  0  0  0  0  0  0
    3.5913    4.1977    0.0000 C   0  0  0  0  0  0  0  0  0  0
    1.1660    4.1977    0.0000 C   0  0  0  0  0  0  0  0  0  0
    6.0167    2.7985    0.0000 N   0  3  0  0  0  0  0  0  0  0
    7.2293    2.0988    0.0000 O   0  5  0  0  0  0  0  0  0  0
    6.0167    4.1977    0.0000 O   0  0  0  0  0  0  0  0  0  0
  1  2  4  0  0  0  0
  2  3  4  0  0  0  0
  3  4  4  0  0  0  0
  4  5  4  0  0  0  0
  5  6  4  0  0  0  0
  1  6  4  0  0  0  0
  1  7  4  0  0  0  0
  7  8  4  0  0  0  0
  8  9  4  0  0  0  0
  9 10  4  0  0  0  0
  2 10  4  0  0  0  0
  6 11  1  0  0  0  0
  7 12  1  0  0  0  0
 11 12  2  0  0  0  0
  5 13  1  0  0  0  0
 13 14  1  0  0  0  0
 13 15  2  0  0  0  0
M  END
>  <Compound Name> (148)
3-nitroacenaphthylene

>  <Formula> (148)
C12H7NO2

>  <LogP> (148)
3.36

>  <LUMO> (148)
-2.158

>  <MOL_ID> (148)
148

>  <Activity> (148)
1.77

$$$$
2,7-dinitrophenazine
csChmFindW1207992328
[comments]
 20 22  0     0  0  0  0  0  0  1 V2000
    2.3320    3.4981    0.0000 C   0  0  0  0  0  0  0  0  0  0
    2.3320    2.0988    0.0000 C   0  0  0  0  0  0  0  0  0  0
    3.5447    1.3992    0.0000 C   0  0  0  0  0  0  0  0  0  0
    4.7574    2.0988    0.0000 C   0  0  0  0  0  0  0  0  0  0
    4.7574    3.4981    0.0000 C   0  0  0  0  0  0  0  0  0  0
    3.5447    4.1977    0.0000 C   0  0  0  0  0  0  0  0  0  0
    5.9700    1.3992    0.0000 N   0  0  0  0  0  0  0  0  0  0
    7.1827    2.0988    0.0000 C   0  0  0  0  0  0  0  0  0  0
    7.1827    3.4981    0.0000 C   0  0  0  0  0  0  0  0  0  0
    5.9700    4.1977    0.0000 N   0  0  0  0  0  0  0  0  0  0
    8.3954    1.3992    0.0000 C   0  0  0  0  0  0  0  0  0  0
    9.6080    2.0988    0.0000 C   0  0  0  0  0  0  0  0  0  0
    9.6080    3.4981    0.0000 C   0  0  0  0  0  0  0  0  0  0
    8.3954    4.1977    0.0000 C   0  0  0  0  0  0  0  0  0  0
   10.8207    4.1977    0.0000 N   0  3  0  0  0  0  0  0  0  0
   12.0333    3.4981    0.0000 O   0  5  0  0  0  0  0  0  0  0
   10.8207    5.5036    0.0000 O   0  0  0  0  0  0  0  0  0  0
    1.1194    1.3992    0.0000 N   0  3  0  0  0  0  0  0  0  0
    0.0000    2.0988    0.0000 O   0  5  0  0  0  0  0  0  0  0
    1.1194    0.0000    0.0000 O   0  0  0  0  0  0  0  0  0  0
  1  2  4  0  0  0  0
  2  3  4  0  0  0  0
  3  4  4  0  0  0  0
  4  5  4  0  0  0  0
  5  6  4  0  0  0  0
  1  6  4  0  0  0  0
  4  7  4  0  0  0  0
  7  8  4  0  0  0  0
  8  9  4  0  0  0  0
  9 10  4  0  0  0  0
  5 10  4  0  0  0  0
  8 11  4  0  0  0  0
 11 12  4  0  0  0  0
 12 13  4  0  0  0  0
 13 14  4  0  0  0  0
  9 14  4  0  0  0  0
 13 15  1  0  0  0  0
 15 16  1  0  0  0  0
 15 17  2  0  0  0  0
  2 18  1  0  0  0  0
 18 19  1  0  0  0  0
 18 20  2  0  0  0  0
M  END
>  <Compound Name> (149)
2,7-dinitrophenazine

>  <Formula> (149)
C12H6N4O4

>  <LogP> (149)
2.29

>  <LUMO> (149)
-2.87

>  <MOL_ID> (149)
149

>  <Activity> (149)
4.34

$$$$
metronidazole
csChmFindW1207992328
[comments]
 12 12  0     0  0  0  0  0  0  1 V2000
    2.2854    1.3992    0.0000 C   0  0  0  0  0  0  0  0  0  0
    2.2854   -0.0000    0.0000 C   0  0  0  0  0  0  0  0  0  0
    3.4980    2.0988    0.0000 N   0  0  0  0  0  0  0  0  0  0
    4.7107    1.3992    0.0000 C   0  0  0  0  0  0  0  0  0  0
    4.7107   -0.0000    0.0000 N   0  0  0  0  0  0  0  0  0  0
    5.9234    2.0988    0.0000 C   0  0  0  0  0  0  0  0  0  0
    3.4980    3.4980    0.0000 C   0  0  0  0  0  0  0  0  0  0
    4.7107    4.1977    0.0000 C   0  0  0  0  0  0  0  0  0  0
    5.9234    3.4980    0.0000 O   0  0  0  0  0  0  0  0  0  0
    1.3059    2.3787    0.0000 N   0  3  0  0  0  0  0  0  0  0
    1.6791    3.7313    0.0000 O   0  5  0  0  0  0  0  0  0  0
    0.0000    2.0055    0.0000 O   0  0  0  0  0  0  0  0  0  0
  1  2  4  0  0  0  0
  1  3  4  0  0  0  0
  3  4  4  0  0  0  0
  4  5  4  0  0  0  0
  2  5  4  0  0  0  0
  4  6  1  0  0  0  0
  3  7  1  0  0  0  0
  7  8  1  0  0  0  0
  8  9  1  0  0  0  0
  1 10  1  0  0  0  0
 10 11  1  0  0  0  0
 10 12  2  0  0  0  0
M  END
>  <Compound Name> (150)
metronidazole

>  <Formula> (150)
C6H10N3O3

>  <LogP> (150)
-0.02

>  <LUMO> (150)
-0.995

>  <MOL_ID> (150)
150

>  <Activity> (150)
-1.61

$$$$
7-nitroindazole
csChmFindW1207992328
[comments]
 12 13  0     0  0  0  0  0  0  1 V2000
   -0.0000    4.2000    0.0000 C   0  0  0  0  0  0  0  0  0  0
   -0.0000    2.8000    0.0000 C   0  0  0  0  0  0  0  0  0  0
    1.1667    2.1000    0.0000 C   0  0  0  0  0  0  0  0  0  0
    2.3800    2.8000    0.0000 C   0  0  0  0  0  0  0  0  0  0
    2.3800    4.2000    0.0000 C   0  0  0  0  0  0  0  0  0  0
    1.1667    4.8533    0.0000 C   0  0  0  0  0  0  0  0  0  0
    3.7333    2.3800    0.0000 N   0  0  0  1  0  0  0  0  0  0
    4.5267    3.5000    0.0000 N   0  0  0  0  0  0  0  0  0  0
    3.7333    4.6200    0.0000 C   0  0  0  0  0  0  0  0  0  0
    1.1667    0.7000    0.0000 N   0  3  0  0  0  0  0  0  0  0
   -0.0000   -0.0000    0.0000 O   0  5  0  0  0  0  0  0  0  0
    2.3800   -0.0000    0.0000 O   0  0  0  0  0  0  0  0  0  0
  1  2  4  0  0  0  0
  2  3  4  0  0  0  0
  3  4  4  0  0  0  0
  4  5  4  0  0  0  0
  5  6  4  0  0  0  0
  1  6  4  0  0  0  0
  4  7  4  0  0  0  0
  7  8  4  0  0  0  0
  8  9  4  0  0  0  0
  5  9  4  0  0  0  0
  3 10  1  0  0  0  0
 10 11  1  0  0  0  0
 10 12  2  0  0  0  0
M  END
>  <Compound Name> (151)
7-nitroindazole

>  <Formula> (151)
C7H4N3O2

>  <LogP> (151)
1.75

>  <LUMO> (151)
-1.411

>  <MOL_ID> (151)
151

>  <Activity> (151)
0.11

$$$$
2,5-dinitrofluoranthene
csChmFindW1207992328
[comments]
 22 25  0     0  0  0  0  0  0  1 V2000
    4.8040    3.4981    0.0000 C   0  0  0  0  0  0  0  0  0  0
    4.8040    2.0988    0.0000 C   0  0  0  0  0  0  0  0  0  0
    6.0167    1.3992    0.0000 C   0  0  0  0  0  0  0  0  0  0
    7.2293    2.0988    0.0000 C   0  0  0  0  0  0  0  0  0  0
    7.2293    3.4981    0.0000 C   0  0  0  0  0  0  0  0  0  0
    6.0167    4.1977    0.0000 C   0  0  0  0  0  0  0  0  0  0
    3.5913    4.1977    0.0000 C   0  0  0  0  0  0  0  0  0  0
    2.3787    3.4981    0.0000 C   0  0  0  0  0  0  0  0  0  0
    2.3787    2.0988    0.0000 C   0  0  0  0  0  0  0  0  0  0
    3.5913    1.3992    0.0000 C   0  0  0  0  0  0  0  0  0  0
    5.4570    5.5969    0.0000 C   0  0  0  0  0  0  0  0  0  0
    4.1510    5.5969    0.0000 C   0  0  0  0  0  0  0  0  0  0
    6.1099    6.7163    0.0000 C   0  0  0  0  0  0  0  0  0  0
    5.4570    7.7890    0.0000 C   0  0  0  0  0  0  0  0  0  0
    4.1510    7.7890    0.0000 C   0  0  0  0  0  0  0  0  0  0
    3.4981    6.7163    0.0000 C   0  0  0  0  0  0  0  0  0  0
    8.4420    1.3992    0.0000 N   0  3  0  0  0  0  0  0  0  0
    8.4420    0.0000    0.0000 O   0  5  0  0  0  0  0  0  0  0
    9.6546    2.0988    0.0000 O   0  0  0  0  0  0  0  0  0  0
    1.1660    1.3992    0.0000 N   0  3  0  0  0  0  0  0  0  0
   -0.0000    2.0988    0.0000 O   0  5  0  0  0  0  0  0  0  0
    1.1660    0.0000    0.0000 O   0  0  0  0  0  0  0  0  0  0
  1  2  4  0  0  0  0
  2  3  4  0  0  0  0
  3  4  4  0  0  0  0
  4  5  4  0  0  0  0
  5  6  4  0  0  0  0
  1  6  4  0  0  0  0
  1  7  4  0  0  0  0
  7  8  4  0  0  0  0
  8  9  4  0  0  0  0
  9 10  4  0  0  0  0
  2 10  4  0  0  0  0
  6 11  1  0  0  0  0
  7 12  1  0  0  0  0
 11 12  4  0  0  0  0
 11 13  4  0  0  0  0
 13 14  4  0  0  0  0
 14 15  4  0  0  0  0
 15 16  4  0  0  0  0
 12 16  4  0  0  0  0
  4 17  1  0  0  0  0
 17 18  1  0  0  0  0
 17 19  2  0  0  0  0
  9 20  1  0  0  0  0
 20 21  1  0  0  0  0
 20 22  2  0  0  0  0
M  END
>  <Compound Name> (152)
2,5-dinitrofluoranthene

>  <Formula> (152)
C16H8N2O4

>  <LogP> (152)
4.44

>  <LUMO> (152)
-2.191

>  <MOL_ID> (152)
152

>  <Activity> (152)
2.32

$$$$
5-nitroacenaphthene
csChmFindW1207992328
[comments]
 15 17  0     0  0  0  0  0  0  1 V2000
    2.3787    4.1977    0.0000 C   0  0  0  0  0  0  0  0  0  0
    2.3787    2.7984    0.0000 C   0  0  0  0  0  0  0  0  0  0
    3.5913    2.0988    0.0000 C   0  0  0  0  0  0  0  0  0  0
    4.8040    2.7984    0.0000 C   0  0  0  0  0  0  0  0  0  0
    4.8040    4.1977    0.0000 C   0  0  0  0  0  0  0  0  0  0
    3.5913    4.8973    0.0000 C   0  0  0  0  0  0  0  0  0  0
    1.1660    4.8973    0.0000 C   0  0  0  0  0  0  0  0  0  0
   -0.0000    4.1977    0.0000 C   0  0  0  0  0  0  0  0  0  0
   -0.0000    2.7984    0.0000 C   0  0  0  0  0  0  0  0  0  0
    1.1660    2.0988    0.0000 C   0  0  0  0  0  0  0  0  0  0
    3.5913    6.2965    0.0000 C   0  0  0  0  0  0  0  0  0  0
    1.1660    6.2965    0.0000 C   0  0  0  0  0  0  0  0  0  0
    3.5913    0.6996    0.0000 N   0  3  0  0  0  0  0  0  0  0
    2.3787   -0.0000    0.0000 O   0  5  0  0  0  0  0  0  0  0
    4.8040   -0.0000    0.0000 O   0  0  0  0  0  0  0  0  0  0
  1  2  4  0  0  0  0
  2  3  4  0  0  0  0
  3  4  4  0  0  0  0
  4  5  4  0  0  0  0
  5  6  4  0  0  0  0
  1  6  4  0  0  0  0
  1  7  4  0  0  0  0
  7  8  4  0  0  0  0
  8  9  4  0  0  0  0
  9 10  4  0  0  0  0
  2 10  4  0  0  0  0
  6 11  1  0  0  0  0
  7 12  1  0  0  0  0
 11 12  1  0  0  0  0
  3 13  1  0  0  0  0
 13 14  1  0  0  0  0
 13 15  2  0  0  0  0
M  END
>  <Compound Name> (153)
5-nitroacenaphthene

>  <Formula> (153)
C12H9NO2

>  <LogP> (153)
3.85

>  <LUMO> (153)
-1.151

>  <MOL_ID> (153)
153

>  <Activity> (153)
0.58

$$$$
2-nitrobenzimidazole
csChmFindW1207992328
[comments]
 12 13  0     0  0  0  0  0  0  1 V2000
   -0.0000    2.1000    0.0000 C   0  0  0  0  0  0  0  0  0  0
   -0.0000    0.7000    0.0000 C   0  0  0  0  0  0  0  0  0  0
    1.1667    0.0000    0.0000 C   0  0  0  0  0  0  0  0  0  0
    2.3800    0.7000    0.0000 C   0  0  0  0  0  0  0  0  0  0
    2.3800    2.1000    0.0000 C   0  0  0  0  0  0  0  0  0  0
    1.1667    2.7533    0.0000 C   0  0  0  0  0  0  0  0  0  0
    3.7333    0.2800    0.0000 N   0  0  0  1  0  0  0  0  0  0
    4.5267    1.4000    0.0000 C   0  0  0  0  0  0  0  0  0  0
    3.7333    2.5200    0.0000 N   0  0  0  0  0  0  0  0  0  0
    5.9267    1.4000    0.0000 N   0  3  0  0  0  0  0  0  0  0
    6.6267    0.1867    0.0000 O   0  5  0  0  0  0  0  0  0  0
    6.6267    2.6133    0.0000 O   0  0  0  0  0  0  0  0  0  0
  1  2  4  0  0  0  0
  2  3  4  0  0  0  0
  3  4  4  0  0  0  0
  4  5  4  0  0  0  0
  5  6  4  0  0  0  0
  1  6  4  0  0  0  0
  4  7  4  0  0  0  0
  7  8  4  0  0  0  0
  8  9  4  0  0  0  0
  5  9  4  0  0  0  0
  8 10  1  0  0  0  0
 10 11  1  0  0  0  0
 10 12  2  0  0  0  0
M  END
>  <Compound Name> (154)
2-nitrobenzimidazole

>  <Formula> (154)
C7H4N3O2

>  <LogP> (154)
1.59

>  <LUMO> (154)
-1.362

>  <MOL_ID> (154)
154

>  <Activity> (154)
0

$$$$
2,4-dinitroanisole
csChmFindW1207992328
[comments]
 14 14  0     0  0  0  0  0  0  1 V2000
    2.0533    1.2133    0.0000 C   0  0  0  0  0  0  0  0  0  0
    2.7533   -0.0000    0.0000 C   0  0  0  0  0  0  0  0  0  0
    4.1533   -0.0000    0.0000 C   0  0  0  0  0  0  0  0  0  0
    4.8533    1.2133    0.0000 C   0  0  0  0  0  0  0  0  0  0
    4.1533    2.4267    0.0000 C   0  0  0  0  0  0  0  0  0  0
    2.7533    2.4267    0.0000 C   0  0  0  0  0  0  0  0  0  0
    6.2533    1.2133    0.0000 O   0  0  0  0  0  0  0  0  0  0
    7.6533    1.2133    0.0000 C   0  0  0  0  0  0  0  0  0  0
    4.8533    3.6400    0.0000 N   0  3  0  0  0  0  0  0  0  0
    6.2533    3.6400    0.0000 O   0  5  0  0  0  0  0  0  0  0
    4.1533    4.8067    0.0000 O   0  0  0  0  0  0  0  0  0  0
    0.6533    1.2133    0.0000 N   0  3  0  0  0  0  0  0  0  0
   -0.0000    2.4267    0.0000 O   0  5  0  0  0  0  0  0  0  0
   -0.0000   -0.0000    0.0000 O   0  0  0  0  0  0  0  0  0  0
  1  2  4  0  0  0  0
  2  3  4  0  0  0  0
  3  4  4  0  0  0  0
  4  5  4  0  0  0  0
  5  6  4  0  0  0  0
  1  6  4  0  0  0  0
  4  7  1  0  0  0  0
  7  8  1  0  0  0  0
  5  9  1  0  0  0  0
  9 10  1  0  0  0  0
  9 11  2  0  0  0  0
  1 12  1  0  0  0  0
 12 13  1  0  0  0  0
 12 14  2  0  0  0  0
M  END
>  <Compound Name> (155)
2,4-dinitroanisole

>  <Formula> (155)
C7H6N2O5

>  <LogP> (155)
1.72

>  <LUMO> (155)
-1.737

>  <MOL_ID> (155)
155

>  <Activity> (155)
-1.89

$$$$
6-nitroindoline
csChmFindW1207992328
[comments]
 12 13  0     0  0  0  0  0  0  1 V2000
    3.5913    1.3992    0.0000 C   0  0  0  0  0  0  0  0  0  0
    4.8040    2.0988    0.0000 C   0  0  0  0  0  0  0  0  0  0
    4.8040    3.4981    0.0000 C   0  0  0  0  0  0  0  0  0  0
    3.5913    4.1977    0.0000 C   0  0  0  0  0  0  0  0  0  0
    2.3787    3.4981    0.0000 C   0  0  0  0  0  0  0  0  0  0
    2.3787    2.0988    0.0000 C   0  0  0  0  0  0  0  0  0  0
    6.1566    1.6791    0.0000 N   0  0  0  1  0  0  0  0  0  0
    6.9495    2.7984    0.0000 C   0  0  0  0  0  0  0  0  0  0
    6.1566    3.9178    0.0000 C   0  0  0  0  0  0  0  0  0  0
    1.1660    1.3992    0.0000 N   0  3  0  0  0  0  0  0  0  0
   -0.0000    2.0988    0.0000 O   0  5  0  0  0  0  0  0  0  0
    1.1660    0.0000    0.0000 O   0  0  0  0  0  0  0  0  0  0
  1  2  4  0  0  0  0
  2  3  4  0  0  0  0
  3  4  4  0  0  0  0
  4  5  4  0  0  0  0
  5  6  4  0  0  0  0
  1  6  4  0  0  0  0
  2  7  1  0  0  0  0
  7  8  1  0  0  0  0
  8  9  1  0  0  0  0
  3  9  1  0  0  0  0
  6 10  1  0  0  0  0
 10 11  1  0  0  0  0
 10 12  2  0  0  0  0
M  END
>  <Compound Name> (156)
6-nitroindoline

>  <Formula> (156)
C8H8N2O2

>  <LogP> (156)
1.92

>  <LUMO> (156)
-0.854

>  <MOL_ID> (156)
156

>  <Activity> (156)
-0.48

$$$$
6-hydroxy-1-nitropyrene
csChmFindW1207992328
[comments]
 20 23  0     0  0  0  0  0  0  1 V2000
   -0.0000    3.5000    0.0000 C   0  0  0  0  0  0  0  0  0  0
   -0.0000    2.1000    0.0000 C   0  0  0  0  0  0  0  0  0  0
    1.1667    1.4000    0.0000 C   0  0  0  0  0  0  0  0  0  0
    2.3800    2.1000    0.0000 C   0  0  0  0  0  0  0  0  0  0
    2.3800    3.5000    0.0000 C   0  0  0  0  0  0  0  0  0  0
    1.1667    4.2000    0.0000 C   0  0  0  0  0  0  0  0  0  0
    3.5933    4.2000    0.0000 C   0  0  0  0  0  0  0  0  0  0
    3.5933    5.6000    0.0000 C   0  0  0  0  0  0  0  0  0  0
    2.3800    6.3000    0.0000 C   0  0  0  0  0  0  0  0  0  0
    1.1667    5.6000    0.0000 C   0  0  0  0  0  0  0  0  0  0
    3.5933    1.4000    0.0000 C   0  0  0  0  0  0  0  0  0  0
    4.8067    2.1000    0.0000 C   0  0  0  0  0  0  0  0  0  0
    4.8067    3.5000    0.0000 C   0  0  0  0  0  0  0  0  0  0
    5.9733    4.2000    0.0000 C   0  0  0  0  0  0  0  0  0  0
    5.9733    5.6000    0.0000 C   0  0  0  0  0  0  0  0  0  0
    4.8067    6.3000    0.0000 C   0  0  0  0  0  0  0  0  0  0
    1.1667   -0.0000    0.0000 O   0  0  0  0  0  0  0  0  0  0
    4.8067    7.7000    0.0000 N   0  3  0  0  0  0  0  0  0  0
    5.9733    8.3533    0.0000 O   0  5  0  0  0  0  0  0  0  0
    3.5933    8.3533    0.0000 O   0  0  0  0  0  0  0  0  0  0
  1  2  4  0  0  0  0
  2  3  4  0  0  0  0
  3  4  4  0  0  0  0
  4  5  4  0  0  0  0
  5  6  4  0  0  0  0
  1  6  4  0  0  0  0
  5  7  4  0  0  0  0
  7  8  4  0  0  0  0
  8  9  4  0  0  0  0
  9 10  4  0  0  0  0
  6 10  4  0  0  0  0
  4 11  4  0  0  0  0
 11 12  4  0  0  0  0
 12 13  4  0  0  0  0
  7 13  4  0  0  0  0
 13 14  4  0  0  0  0
 14 15  4  0  0  0  0
 15 16  4  0  0  0  0
  8 16  4  0  0  0  0
  3 17  1  0  0  0  0
 16 18  1  0  0  0  0
 18 19  1  0  0  0  0
 18 20  2  0  0  0  0
M  END
>  <Compound Name> (157)
6-hydroxy-1-nitropyrene

>  <Formula> (157)
C16H9NO3

>  <LogP> (157)
4.19

>  <LUMO> (157)
-1.623

>  <MOL_ID> (157)
157

>  <Activity> (157)
1.34

$$$$
2-(acetylamino)-7-nitrofluorene
csChmFindW1207992328
[comments]
 20 22  0     0  0  0  0  0  0  1 V2000
    2.3787    3.4980    0.0000 C   0  0  0  0  0  0  0  0  0  0
    2.3787    2.0988    0.0000 C   0  0  0  0  0  0  0  0  0  0
    3.5913    1.3992    0.0000 C   0  0  0  0  0  0  0  0  0  0
    4.8040    2.0988    0.0000 C   0  0  0  0  0  0  0  0  0  0
    4.8040    3.4980    0.0000 C   0  0  0  0  0  0  0  0  0  0
    3.5913    4.1977    0.0000 C   0  0  0  0  0  0  0  0  0  0
    6.0166    1.3992    0.0000 C   0  0  0  0  0  0  0  0  0  0
    7.2293    2.0988    0.0000 C   0  0  0  0  0  0  0  0  0  0
    7.2293    3.4980    0.0000 C   0  0  0  0  0  0  0  0  0  0
    8.4420    1.3992    0.0000 C   0  0  0  0  0  0  0  0  0  0
    9.6546    2.0988    0.0000 C   0  0  0  0  0  0  0  0  0  0
    9.6546    3.4980    0.0000 C   0  0  0  0  0  0  0  0  0  0
    8.4420    4.1977    0.0000 C   0  0  0  0  0  0  0  0  0  0
    1.1660    1.3992    0.0000 N   0  3  0  0  0  0  0  0  0  0
   -0.0000    2.0988    0.0000 O   0  5  0  0  0  0  0  0  0  0
    1.1660    0.0000    0.0000 O   0  0  0  0  0  0  0  0  0  0
   10.8673    1.3992    0.0000 N   0  0  0  1  0  0  0  0  0  0
   12.0799    2.0988    0.0000 C   0  0  0  0  0  0  0  0  0  0
   12.0799    3.4980    0.0000 O   0  0  0  0  0  0  0  0  0  0
   13.2926    1.3992    0.0000 C   0  0  0  0  0  0  0  0  0  0
  1  2  4  0  0  0  0
  2  3  4  0  0  0  0
  3  4  4  0  0  0  0
  4  5  4  0  0  0  0
  5  6  4  0  0  0  0
  1  6  4  0  0  0  0
  4  7  1  0  0  0  0
  7  8  1  0  0  0  0
  8  9  4  0  0  0  0
  5  9  1  0  0  0  0
  8 10  4  0  0  0  0
 10 11  4  0  0  0  0
 11 12  4  0  0  0  0
 12 13  4  0  0  0  0
  9 13  4  0  0  0  0
  2 14  1  0  0  0  0
 14 15  1  0  0  0  0
 14 16  2  0  0  0  0
 11 17  1  0  0  0  0
 17 18  1  0  0  0  0
 18 19  2  0  0  0  0
 18 20  1  0  0  0  0
M  END
>  <Compound Name> (158)
2-(acetylamino)-7-nitrofluorene

>  <Formula> (158)
C15H12N2O3

>  <LogP> (158)
3.08

>  <LUMO> (158)
-1.34

>  <MOL_ID> (158)
158

>  <Activity> (158)
2.85

$$$$
8-hydroxy-1-nitropyrene
csChmFindW1207992328
[comments]
 20 23  0     0  0  0  0  0  0  1 V2000
    1.1660    2.0989    0.0000 C   0  0  0  0  0  0  0  0  0  0
    1.1660    0.6996    0.0000 C   0  0  0  0  0  0  0  0  0  0
    2.3787   -0.0000    0.0000 C   0  0  0  0  0  0  0  0  0  0
    3.5914    0.6996    0.0000 C   0  0  0  0  0  0  0  0  0  0
    3.5914    2.0989    0.0000 C   0  0  0  0  0  0  0  0  0  0
    2.3787    2.7985    0.0000 C   0  0  0  0  0  0  0  0  0  0
    4.8040    2.7985    0.0000 C   0  0  0  0  0  0  0  0  0  0
    4.8040    4.1977    0.0000 C   0  0  0  0  0  0  0  0  0  0
    3.5914    4.8973    0.0000 C   0  0  0  0  0  0  0  0  0  0
    2.3787    4.1977    0.0000 C   0  0  0  0  0  0  0  0  0  0
    6.0167    2.0989    0.0000 C   0  0  0  0  0  0  0  0  0  0
    7.2294    2.7985    0.0000 C   0  0  0  0  0  0  0  0  0  0
    7.2294    4.1977    0.0000 C   0  0  0  0  0  0  0  0  0  0
    6.0167    4.8973    0.0000 C   0  0  0  0  0  0  0  0  0  0
    4.8040   -0.0000    0.0000 C   0  0  0  0  0  0  0  0  0  0
    6.0167    0.6996    0.0000 C   0  0  0  0  0  0  0  0  0  0
    6.0167    6.2966    0.0000 N   0  3  0  0  0  0  0  0  0  0
    7.2294    6.9495    0.0000 O   0  5  0  0  0  0  0  0  0  0
    4.8040    6.9495    0.0000 O   0  0  0  0  0  0  0  0  0  0
   -0.0000    2.7985    0.0000 O   0  0  0  0  0  0  0  0  0  0
  1  2  4  0  0  0  0
  2  3  4  0  0  0  0
  3  4  4  0  0  0  0
  4  5  4  0  0  0  0
  5  6  4  0  0  0  0
  1  6  4  0  0  0  0
  5  7  4  0  0  0  0
  7  8  4  0  0  0  0
  8  9  4  0  0  0  0
  9 10  4  0  0  0  0
  6 10  4  0  0  0  0
  7 11  4  0  0  0  0
 11 12  4  0  0  0  0
 12 13  4  0  0  0  0
 13 14  4  0  0  0  0
  8 14  4  0  0  0  0
  4 15  4  0  0  0  0
 15 16  4  0  0  0  0
 11 16  4  0  0  0  0
 14 17  1  0  0  0  0
 17 18  1  0  0  0  0
 17 19  2  0  0  0  0
  1 20  1  0  0  0  0
M  END
>  <Compound Name> (159)
8-hydroxy-1-nitropyrene

>  <Formula> (159)
C16H9NO3

>  <LogP> (159)
4.19

>  <LUMO> (159)
-1.742

>  <MOL_ID> (159)
159

>  <Activity> (159)
1.49

$$$$
2-bromo-4,6-dinitroaniline
csChmFindW1207992328
[comments]
 14 14  0     0  0  0  0  0  0  1 V2000
    2.0522    3.6380    0.0000 C   0  0  0  0  0  0  0  0  0  0
    2.7518    2.4253    0.0000 C   0  0  0  0  0  0  0  0  0  0
    4.1510    2.4253    0.0000 C   0  0  0  0  0  0  0  0  0  0
    4.8506    3.6380    0.0000 C   0  0  0  0  0  0  0  0  0  0
    4.1510    4.8506    0.0000 C   0  0  0  0  0  0  0  0  0  0
    2.7518    4.8506    0.0000 C   0  0  0  0  0  0  0  0  0  0
    6.2499    3.6380    0.0000 N   0  0  0  2  0  0  0  0  0  0
    4.8506    6.0633    0.0000 Br  0  0  0  0  0  0  0  0  0  0
    0.6530    3.6380    0.0000 N   0  3  0  0  0  0  0  0  0  0
   -0.0000    4.8506    0.0000 O   0  5  0  0  0  0  0  0  0  0
   -0.0000    2.4253    0.0000 O   0  0  0  0  0  0  0  0  0  0
    4.8506    1.2127    0.0000 N   0  3  0  0  0  0  0  0  0  0
    4.1510   -0.0000    0.0000 O   0  5  0  0  0  0  0  0  0  0
    6.2499    1.2127    0.0000 O   0  0  0  0  0  0  0  0  0  0
  1  2  4  0  0  0  0
  2  3  4  0  0  0  0
  3  4  4  0  0  0  0
  4  5  4  0  0  0  0
  5  6  4  0  0  0  0
  1  6  4  0  0  0  0
  4  7  1  0  0  0  0
  5  8  1  0  0  0  0
  1  9  1  0  0  0  0
  9 10  1  0  0  0  0
  9 11  2  0  0  0  0
  3 12  1  0  0  0  0
 12 13  1  0  0  0  0
 12 14  2  0  0  0  0
M  END
>  <Compound Name> (160)
2-bromo-4,6-dinitroaniline

>  <Formula> (160)
C6H4BrN3O4

>  <LogP> (160)
2.78

>  <LUMO> (160)
-1.691

>  <MOL_ID> (160)
160

>  <Activity> (160)
-1.32

$$$$
1,6-dinitrobenzo[e]pyrene
csChmFindW1207992328
[comments]
 26 30  0     0  0  0  0  0  0  1 V2000
    0.0000    4.1977    0.0000 C   0  0  0  0  0  0  0  0  0  0
    0.0000    2.7985    0.0000 C   0  0  0  0  0  0  0  0  0  0
    1.1660    2.0989    0.0000 C   0  0  0  0  0  0  0  0  0  0
    2.3787    2.7985    0.0000 C   0  0  0  0  0  0  0  0  0  0
    2.3787    4.1977    0.0000 C   0  0  0  0  0  0  0  0  0  0
    1.1660    4.8973    0.0000 C   0  0  0  0  0  0  0  0  0  0
    3.5914    4.8973    0.0000 C   0  0  0  0  0  0  0  0  0  0
    3.5914    6.2966    0.0000 C   0  0  0  0  0  0  0  0  0  0
    2.3787    6.9962    0.0000 C   0  0  0  0  0  0  0  0  0  0
    1.1660    6.2966    0.0000 C   0  0  0  0  0  0  0  0  0  0
    4.8040    4.1977    0.0000 C   0  0  0  0  0  0  0  0  0  0
    6.0167    4.8973    0.0000 C   0  0  0  0  0  0  0  0  0  0
    6.0167    6.2966    0.0000 C   0  0  0  0  0  0  0  0  0  0
    4.8040    6.9962    0.0000 C   0  0  0  0  0  0  0  0  0  0
    3.5914    2.0989    0.0000 C   0  0  0  0  0  0  0  0  0  0
    4.8040    2.7985    0.0000 C   0  0  0  0  0  0  0  0  0  0
    2.3787    8.3954    0.0000 C   0  0  0  0  0  0  0  0  0  0
    1.1660    9.0950    0.0000 C   0  0  0  0  0  0  0  0  0  0
    0.0000    8.3954    0.0000 C   0  0  0  0  0  0  0  0  0  0
    0.0000    6.9962    0.0000 C   0  0  0  0  0  0  0  0  0  0
    4.8040    8.3954    0.0000 N   0  3  0  0  0  0  0  0  0  0
    6.0167    9.0950    0.0000 O   0  5  0  0  0  0  0  0  0  0
    3.5914    9.0950    0.0000 O   0  0  0  0  0  0  0  0  0  0
    1.1660    0.6996    0.0000 N   0  3  0  0  0  0  0  0  0  0
    0.0000    0.0000    0.0000 O   0  5  0  0  0  0  0  0  0  0
    2.3787    0.0000    0.0000 O   0  0  0  0  0  0  0  0  0  0
  1  2  4  0  0  0  0
  2  3  4  0  0  0  0
  3  4  4  0  0  0  0
  4  5  4  0  0  0  0
  5  6  4  0  0  0  0
  1  6  4  0  0  0  0
  5  7  4  0  0  0  0
  7  8  4  0  0  0  0
  8  9  4  0  0  0  0
  9 10  4  0  0  0  0
  6 10  4  0  0  0  0
  7 11  4  0  0  0  0
 11 12  4  0  0  0  0
 12 13  4  0  0  0  0
 13 14  4  0  0  0  0
  8 14  4  0  0  0  0
  4 15  4  0  0  0  0
 15 16  4  0  0  0  0
 11 16  4  0  0  0  0
  9 17  4  0  0  0  0
 17 18  4  0  0  0  0
 18 19  4  0  0  0  0
 19 20  4  0  0  0  0
 10 20  4  0  0  0  0
 14 21  1  0  0  0  0
 21 22  1  0  0  0  0
 21 23  2  0  0  0  0
  3 24  1  0  0  0  0
 24 25  1  0  0  0  0
 24 26  2  0  0  0  0
M  END
>  <Compound Name> (161)
1,6-dinitrobenzo[e]pyrene

>  <Formula> (161)
C20H10N2O4

>  <LogP> (161)
5.61

>  <LUMO> (161)
-2.221

>  <MOL_ID> (161)
161

>  <Activity> (161)
1.99

$$$$
3,4,3',4'-tetranitrobiphenyl
csChmFindW1207992328
[comments]
 24 25  0     0  0  0  0  0  0  1 V2000
    2.7518    2.4253    0.0000 C   0  0  0  0  0  0  0  0  0  0
    2.0522    1.2127    0.0000 C   0  0  0  0  0  0  0  0  0  0
    2.7518    0.0000    0.0000 C   0  0  0  0  0  0  0  0  0  0
    4.1510    0.0000    0.0000 C   0  0  0  0  0  0  0  0  0  0
    4.8506    1.2127    0.0000 C   0  0  0  0  0  0  0  0  0  0
    4.1510    2.4253    0.0000 C   0  0  0  0  0  0  0  0  0  0
    6.2499    1.2127    0.0000 C   0  0  0  0  0  0  0  0  0  0
    6.9495    0.0000    0.0000 C   0  0  0  0  0  0  0  0  0  0
    8.3487    0.0000    0.0000 C   0  0  0  0  0  0  0  0  0  0
    9.0483    1.2127    0.0000 C   0  0  0  0  0  0  0  0  0  0
    8.3487    2.4253    0.0000 C   0  0  0  0  0  0  0  0  0  0
    6.9495    2.4253    0.0000 C   0  0  0  0  0  0  0  0  0  0
    9.0483    3.6380    0.0000 N   0  3  0  0  0  0  0  0  0  0
   10.4475    3.6380    0.0000 O   0  5  0  0  0  0  0  0  0  0
    8.3487    4.8040    0.0000 O   0  0  0  0  0  0  0  0  0  0
   10.4475    1.2127    0.0000 N   0  3  0  0  0  0  0  0  0  0
   11.1472    0.0000    0.0000 O   0  5  0  0  0  0  0  0  0  0
   11.1472    2.4253    0.0000 O   0  0  0  0  0  0  0  0  0  0
    2.0522    3.6380    0.0000 N   0  3  0  0  0  0  0  0  0  0
    2.7518    4.8040    0.0000 O   0  5  0  0  0  0  0  0  0  0
    0.6530    3.6380    0.0000 O   0  0  0  0  0  0  0  0  0  0
    0.6530    1.2127    0.0000 N   0  3  0  0  0  0  0  0  0  0
   -0.0000    2.4253    0.0000 O   0  5  0  0  0  0  0  0  0  0
   -0.0000    0.0000    0.0000 O   0  0  0  0  0  0  0  0  0  0
  1  2  4  0  0  0  0
  2  3  4  0  0  0  0
  3  4  4  0  0  0  0
  4  5  4  0  0  0  0
  5  6  4  0  0  0  0
  1  6  4  0  0  0  0
  5  7  1  0  0  0  0
  7  8  4  0  0  0  0
  8  9  4  0  0  0  0
  9 10  4  0  0  0  0
 10 11  4  0  0  0  0
 11 12  4  0  0  0  0
  7 12  4  0  0  0  0
 11 13  1  0  0  0  0
 13 14  1  0  0  0  0
 13 15  2  0  0  0  0
 10 16  1  0  0  0  0
 16 17  1  0  0  0  0
 16 18  2  0  0  0  0
  1 19  1  0  0  0  0
 19 20  1  0  0  0  0
 19 21  2  0  0  0  0
  2 22  1  0  0  0  0
 22 23  1  0  0  0  0
 22 24  2  0  0  0  0
M  END
>  <Compound Name> (162)
3,4,3',4'-tetranitrobiphenyl

>  <Formula> (162)
C12H6N4O8

>  <LogP> (162)
3

>  <LUMO> (162)
-2.687

>  <MOL_ID> (162)
162

>  <Activity> (162)
2.85

$$$$
2,7-dinitropyrene
csChmFindW1207992328
[comments]
 22 25  0     0  0  0  0  0  0  1 V2000
    2.3787    3.4981    0.0000 C   0  0  0  0  0  0  0  0  0  0
    2.3787    2.0988    0.0000 C   0  0  0  0  0  0  0  0  0  0
    3.5913    1.3992    0.0000 C   0  0  0  0  0  0  0  0  0  0
    4.8040    2.0988    0.0000 C   0  0  0  0  0  0  0  0  0  0
    4.8040    3.4981    0.0000 C   0  0  0  0  0  0  0  0  0  0
    3.5913    4.1977    0.0000 C   0  0  0  0  0  0  0  0  0  0
    6.0167    4.1977    0.0000 C   0  0  0  0  0  0  0  0  0  0
    6.0167    5.5969    0.0000 C   0  0  0  0  0  0  0  0  0  0
    4.8040    6.2965    0.0000 C   0  0  0  0  0  0  0  0  0  0
    3.5913    5.5969    0.0000 C   0  0  0  0  0  0  0  0  0  0
    7.2293    3.4981    0.0000 C   0  0  0  0  0  0  0  0  0  0
    8.4420    4.1977    0.0000 C   0  0  0  0  0  0  0  0  0  0
    8.4420    5.5969    0.0000 C   0  0  0  0  0  0  0  0  0  0
    7.2293    6.2965    0.0000 C   0  0  0  0  0  0  0  0  0  0
    6.0167    1.3992    0.0000 C   0  0  0  0  0  0  0  0  0  0
    7.2293    2.0988    0.0000 C   0  0  0  0  0  0  0  0  0  0
    9.6546    6.2965    0.0000 N   0  3  0  0  0  0  0  0  0  0
   10.8673    5.5969    0.0000 O   0  5  0  0  0  0  0  0  0  0
    9.6546    7.6957    0.0000 O   0  0  0  0  0  0  0  0  0  0
    1.1660    1.3992    0.0000 N   0  3  0  0  0  0  0  0  0  0
    0.0000    2.0988    0.0000 O   0  5  0  0  0  0  0  0  0  0
    1.1660   -0.0000    0.0000 O   0  0  0  0  0  0  0  0  0  0
  1  2  4  0  0  0  0
  2  3  4  0  0  0  0
  3  4  4  0  0  0  0
  4  5  4  0  0  0  0
  5  6  4  0  0  0  0
  1  6  4  0  0  0  0
  5  7  4  0  0  0  0
  7  8  4  0  0  0  0
  8  9  4  0  0  0  0
  9 10  4  0  0  0  0
  6 10  4  0  0  0  0
  7 11  4  0  0  0  0
 11 12  4  0  0  0  0
 12 13  4  0  0  0  0
 13 14  4  0  0  0  0
  8 14  4  0  0  0  0
  4 15  4  0  0  0  0
 15 16  4  0  0  0  0
 11 16  4  0  0  0  0
 13 17  1  0  0  0  0
 17 18  1  0  0  0  0
 17 19  2  0  0  0  0
  2 20  1  0  0  0  0
 20 21  1  0  0  0  0
 20 22  2  0  0  0  0
M  END
>  <Compound Name> (163)
2,7-dinitropyrene

>  <Formula> (163)
C16H8N2O4

>  <LogP> (163)
4.44

>  <LUMO> (163)
-1.974

>  <MOL_ID> (163)
163

>  <Activity> (163)
4.58

$$$$
1,3-dinitropyrene
csChmFindW1207992328
[comments]
 22 25  0     0  0  0  0  0  0  1 V2000
   -0.0000    2.0988    0.0000 C   0  0  0  0  0  0  0  0  0  0
   -0.0000    0.6996    0.0000 C   0  0  0  0  0  0  0  0  0  0
    1.1660    0.0000    0.0000 C   0  0  0  0  0  0  0  0  0  0
    2.3787    0.6996    0.0000 C   0  0  0  0  0  0  0  0  0  0
    2.3787    2.0988    0.0000 C   0  0  0  0  0  0  0  0  0  0
    1.1660    2.7984    0.0000 C   0  0  0  0  0  0  0  0  0  0
    3.5913    2.7984    0.0000 C   0  0  0  0  0  0  0  0  0  0
    3.5913    4.1977    0.0000 C   0  0  0  0  0  0  0  0  0  0
    2.3787    4.8973    0.0000 C   0  0  0  0  0  0  0  0  0  0
    1.1660    4.1977    0.0000 C   0  0  0  0  0  0  0  0  0  0
    4.8040    2.0988    0.0000 C   0  0  0  0  0  0  0  0  0  0
    6.0167    2.7984    0.0000 C   0  0  0  0  0  0  0  0  0  0
    6.0167    4.1977    0.0000 C   0  0  0  0  0  0  0  0  0  0
    4.8040    4.8973    0.0000 C   0  0  0  0  0  0  0  0  0  0
    3.5913    0.0000    0.0000 C   0  0  0  0  0  0  0  0  0  0
    4.8040    0.6996    0.0000 C   0  0  0  0  0  0  0  0  0  0
    4.8040    6.2965    0.0000 N   0  3  0  0  0  0  0  0  0  0
    6.0167    6.9495    0.0000 O   0  5  0  0  0  0  0  0  0  0
    3.5913    6.9495    0.0000 O   0  0  0  0  0  0  0  0  0  0
    7.2293    2.0988    0.0000 N   0  3  0  0  0  0  0  0  0  0
    7.2293    0.6996    0.0000 O   0  5  0  0  0  0  0  0  0  0
    8.4420    2.7984    0.0000 O   0  0  0  0  0  0  0  0  0  0
  1  2  4  0  0  0  0
  2  3  4  0  0  0  0
  3  4  4  0  0  0  0
  4  5  4  0  0  0  0
  5  6  4  0  0  0  0
  1  6  4  0  0  0  0
  5  7  4  0  0  0  0
  7  8  4  0  0  0  0
  8  9  4  0  0  0  0
  9 10  4  0  0  0  0
  6 10  4  0  0  0  0
  7 11  4  0  0  0  0
 11 12  4  0  0  0  0
 12 13  4  0  0  0  0
 13 14  4  0  0  0  0
  8 14  4  0  0  0  0
  4 15  4  0  0  0  0
 15 16  4  0  0  0  0
 11 16  4  0  0  0  0
 14 17  1  0  0  0  0
 17 18  1  0  0  0  0
 17 19  2  0  0  0  0
 12 20  1  0  0  0  0
 20 21  1  0  0  0  0
 20 22  2  0  0  0  0
M  END
>  <Compound Name> (164)
1,3-dinitropyrene

>  <Formula> (164)
C16H8N2O4

>  <LogP> (164)
4.44

>  <LUMO> (164)
-2.306

>  <MOL_ID> (164)
164

>  <Activity> (164)
5.04

$$$$
8-nitrofluoranthene
csChmFindW1207992328
[comments]
 19 22  0     0  0  0  0  0  0  1 V2000
    2.7518    2.0988    0.0000 C   0  0  0  0  0  0  0  0  0  0
    2.7518    0.6996    0.0000 C   0  0  0  0  0  0  0  0  0  0
    3.9645   -0.0000    0.0000 C   0  0  0  0  0  0  0  0  0  0
    5.1771    0.6996    0.0000 C   0  0  0  0  0  0  0  0  0  0
    5.1771    2.0988    0.0000 C   0  0  0  0  0  0  0  0  0  0
    3.9645    2.7984    0.0000 C   0  0  0  0  0  0  0  0  0  0
    1.5391    2.7984    0.0000 C   0  0  0  0  0  0  0  0  0  0
    0.3265    2.0988    0.0000 C   0  0  0  0  0  0  0  0  0  0
    0.3265    0.6996    0.0000 C   0  0  0  0  0  0  0  0  0  0
    1.5391   -0.0000    0.0000 C   0  0  0  0  0  0  0  0  0  0
    3.4514    4.1977    0.0000 C   0  0  0  0  0  0  0  0  0  0
    2.0522    4.1977    0.0000 C   0  0  0  0  0  0  0  0  0  0
    4.1510    5.4103    0.0000 C   0  0  0  0  0  0  0  0  0  0
    3.4514    6.6230    0.0000 C   0  0  0  0  0  0  0  0  0  0
    2.0522    6.6230    0.0000 C   0  0  0  0  0  0  0  0  0  0
    1.3526    5.4103    0.0000 C   0  0  0  0  0  0  0  0  0  0
    1.3526    7.8356    0.0000 N   0  3  0  0  0  0  0  0  0  0
    2.0522    9.0483    0.0000 O   0  5  0  0  0  0  0  0  0  0
   -0.0000    7.8356    0.0000 O   0  0  0  0  0  0  0  0  0  0
  1  2  4  0  0  0  0
  2  3  4  0  0  0  0
  3  4  4  0  0  0  0
  4  5  4  0  0  0  0
  5  6  4  0  0  0  0
  1  6  4  0  0  0  0
  1  7  4  0  0  0  0
  7  8  4  0  0  0  0
  8  9  4  0  0  0  0
  9 10  4  0  0  0  0
  2 10  4  0  0  0  0
  6 11  1  0  0  0  0
  7 12  1  0  0  0  0
 11 12  4  0  0  0  0
 11 13  4  0  0  0  0
 13 14  4  0  0  0  0
 14 15  4  0  0  0  0
 15 16  4  0  0  0  0
 12 16  4  0  0  0  0
 15 17  1  0  0  0  0
 17 18  1  0  0  0  0
 17 19  2  0  0  0  0
M  END
>  <Compound Name> (165)
8-nitrofluoranthene

>  <Formula> (165)
C16H9NO2

>  <LogP> (165)
4.69

>  <LUMO> (165)
-1.522

>  <MOL_ID> (165)
165

>  <Activity> (165)
4.05

$$$$
1-nitro-3-acetoxypyrene
csChmFindW1207992328
[comments]
 23 26  0     0  0  0  0  0  0  1 V2000
   -0.0000    2.0988    0.0000 C   0  0  0  0  0  0  0  0  0  0
   -0.0000    0.6996    0.0000 C   0  0  0  0  0  0  0  0  0  0
    1.1660    0.0000    0.0000 C   0  0  0  0  0  0  0  0  0  0
    2.3787    0.6996    0.0000 C   0  0  0  0  0  0  0  0  0  0
    2.3787    2.0988    0.0000 C   0  0  0  0  0  0  0  0  0  0
    1.1660    2.7984    0.0000 C   0  0  0  0  0  0  0  0  0  0
    3.5913    2.7984    0.0000 C   0  0  0  0  0  0  0  0  0  0
    3.5913    4.1977    0.0000 C   0  0  0  0  0  0  0  0  0  0
    2.3787    4.8973    0.0000 C   0  0  0  0  0  0  0  0  0  0
    1.1660    4.1977    0.0000 C   0  0  0  0  0  0  0  0  0  0
    4.8040    2.0988    0.0000 C   0  0  0  0  0  0  0  0  0  0
    6.0167    2.7984    0.0000 C   0  0  0  0  0  0  0  0  0  0
    6.0167    4.1977    0.0000 C   0  0  0  0  0  0  0  0  0  0
    4.8040    4.8973    0.0000 C   0  0  0  0  0  0  0  0  0  0
    3.5913    0.0000    0.0000 C   0  0  0  0  0  0  0  0  0  0
    4.8040    0.6996    0.0000 C   0  0  0  0  0  0  0  0  0  0
    4.8040    6.2965    0.0000 N   0  3  0  0  0  0  0  0  0  0
    6.0167    6.9028    0.0000 O   0  5  0  0  0  0  0  0  0  0
    3.5913    6.9028    0.0000 O   0  0  0  0  0  0  0  0  0  0
    7.2293    2.0988    0.0000 O   0  0  0  0  0  0  0  0  0  0
    8.4420    2.7984    0.0000 C   0  0  0  0  0  0  0  0  0  0
    8.4420    4.1977    0.0000 O   0  0  0  0  0  0  0  0  0  0
    9.6546    2.0988    0.0000 C   0  0  0  0  0  0  0  0  0  0
  1  2  4  0  0  0  0
  2  3  4  0  0  0  0
  3  4  4  0  0  0  0
  4  5  4  0  0  0  0
  5  6  4  0  0  0  0
  1  6  4  0  0  0  0
  5  7  4  0  0  0  0
  7  8  4  0  0  0  0
  8  9  4  0  0  0  0
  9 10  4  0  0  0  0
  6 10  4  0  0  0  0
  7 11  4  0  0  0  0
 11 12  4  0  0  0  0
 12 13  4  0  0  0  0
 13 14  4  0  0  0  0
  8 14  4  0  0  0  0
  4 15  4  0  0  0  0
 15 16  4  0  0  0  0
 11 16  4  0  0  0  0
 14 17  1  0  0  0  0
 17 18  1  0  0  0  0
 17 19  2  0  0  0  0
 12 20  1  0  0  0  0
 20 21  1  0  0  0  0
 21 22  2  0  0  0  0
 21 23  1  0  0  0  0
M  END
>  <Compound Name> (166)
1-nitro-3-acetoxypyrene

>  <Formula> (166)
C18H11NO4

>  <LogP> (166)
4.42

>  <LUMO> (166)
-1.709

>  <MOL_ID> (166)
166

>  <Activity> (166)
4.22

$$$$
1,6-dinitropyrene
csChmFindW1207992328
[comments]
 22 25  0     0  0  0  0  0  0  1 V2000
    0.0000    4.1977    0.0000 C   0  0  0  0  0  0  0  0  0  0
    0.0000    2.7985    0.0000 C   0  0  0  0  0  0  0  0  0  0
    1.1660    2.0989    0.0000 C   0  0  0  0  0  0  0  0  0  0
    2.3787    2.7985    0.0000 C   0  0  0  0  0  0  0  0  0  0
    2.3787    4.1977    0.0000 C   0  0  0  0  0  0  0  0  0  0
    1.1660    4.8973    0.0000 C   0  0  0  0  0  0  0  0  0  0
    3.5914    4.8973    0.0000 C   0  0  0  0  0  0  0  0  0  0
    3.5914    6.2966    0.0000 C   0  0  0  0  0  0  0  0  0  0
    2.3787    6.9962    0.0000 C   0  0  0  0  0  0  0  0  0  0
    1.1660    6.2966    0.0000 C   0  0  0  0  0  0  0  0  0  0
    4.8040    4.1977    0.0000 C   0  0  0  0  0  0  0  0  0  0
    6.0167    4.8973    0.0000 C   0  0  0  0  0  0  0  0  0  0
    6.0167    6.2966    0.0000 C   0  0  0  0  0  0  0  0  0  0
    4.8040    6.9962    0.0000 C   0  0  0  0  0  0  0  0  0  0
    3.5914    2.0989    0.0000 C   0  0  0  0  0  0  0  0  0  0
    4.8040    2.7985    0.0000 C   0  0  0  0  0  0  0  0  0  0
    4.8040    8.3954    0.0000 N   0  3  0  0  0  0  0  0  0  0
    6.0167    9.0950    0.0000 O   0  5  0  0  0  0  0  0  0  0
    3.5914    9.0950    0.0000 O   0  0  0  0  0  0  0  0  0  0
    1.1660    0.6996    0.0000 N   0  3  0  0  0  0  0  0  0  0
    0.0000    0.0000    0.0000 O   0  5  0  0  0  0  0  0  0  0
    2.3787    0.0000    0.0000 O   0  0  0  0  0  0  0  0  0  0
  1  2  4  0  0  0  0
  2  3  4  0  0  0  0
  3  4  4  0  0  0  0
  4  5  4  0  0  0  0
  5  6  4  0  0  0  0
  1  6  4  0  0  0  0
  5  7  4  0  0  0  0
  7  8  4  0  0  0  0
  8  9  4  0  0  0  0
  9 10  4  0  0  0  0
  6 10  4  0  0  0  0
  7 11  4  0  0  0  0
 11 12  4  0  0  0  0
 12 13  4  0  0  0  0
 13 14  4  0  0  0  0
  8 14  4  0  0  0  0
  4 15  4  0  0  0  0
 15 16  4  0  0  0  0
 11 16  4  0  0  0  0
 14 17  1  0  0  0  0
 17 18  1  0  0  0  0
 17 19  2  0  0  0  0
  3 20  1  0  0  0  0
 20 21  1  0  0  0  0
 20 22  2  0  0  0  0
M  END
>  <Compound Name> (167)
1,6-dinitropyrene

>  <Formula> (167)
C16H8N2O4

>  <LogP> (167)
4.44

>  <LUMO> (167)
-2.31

>  <MOL_ID> (167)
167

>  <Activity> (167)
5.06

$$$$
4-nitroanisole
csChmFindW1207992328
[comments]
 11 11  0     0  0  0  0  0  0  1 V2000
    2.0067    1.2133    0.0000 C   0  0  0  0  0  0  0  0  0  0
    2.7067   -0.0000    0.0000 C   0  0  0  0  0  0  0  0  0  0
    4.1067   -0.0000    0.0000 C   0  0  0  0  0  0  0  0  0  0
    4.8067    1.2133    0.0000 C   0  0  0  0  0  0  0  0  0  0
    4.1067    2.4267    0.0000 C   0  0  0  0  0  0  0  0  0  0
    2.7067    2.4267    0.0000 C   0  0  0  0  0  0  0  0  0  0
    6.2067    1.2133    0.0000 O   0  0  0  0  0  0  0  0  0  0
    7.1867    2.2400    0.0000 C   0  0  0  0  0  0  0  0  0  0
    0.6067    1.2133    0.0000 N   0  3  0  0  0  0  0  0  0  0
    0.0000    2.4267    0.0000 O   0  5  0  0  0  0  0  0  0  0
    0.0000   -0.0000    0.0000 O   0  0  0  0  0  0  0  0  0  0
  1  2  4  0  0  0  0
  2  3  4  0  0  0  0
  3  4  4  0  0  0  0
  4  5  4  0  0  0  0
  5  6  4  0  0  0  0
  1  6  4  0  0  0  0
  4  7  1  0  0  0  0
  7  8  1  0  0  0  0
  1  9  1  0  0  0  0
  9 10  1  0  0  0  0
  9 11  2  0  0  0  0
M  END
>  <Compound Name> (168)
4-nitroanisole

>  <Formula> (168)
C7H7NO3

>  <LogP> (168)
2.03

>  <LUMO> (168)
-1.112

>  <MOL_ID> (168)
168

>  <Activity> (168)
-2.7

$$$$
2,4-dinitro-1-fluorobenzene
csChmFindW1207992328
[comments]
 13 13  0     0  0  0  0  0  0  1 V2000
    2.0533    1.2133    0.0000 C   0  0  0  0  0  0  0  0  0  0
    2.7533    0.0000    0.0000 C   0  0  0  0  0  0  0  0  0  0
    4.1533    0.0000    0.0000 C   0  0  0  0  0  0  0  0  0  0
    4.8533    1.2133    0.0000 C   0  0  0  0  0  0  0  0  0  0
    4.1533    2.4267    0.0000 C   0  0  0  0  0  0  0  0  0  0
    2.7533    2.4267    0.0000 C   0  0  0  0  0  0  0  0  0  0
    4.8533    3.6400    0.0000 N   0  3  0  0  0  0  0  0  0  0
    6.2533    3.6400    0.0000 O   0  5  0  0  0  0  0  0  0  0
    4.1533    4.8067    0.0000 O   0  0  0  0  0  0  0  0  0  0
    0.6533    1.2133    0.0000 N   0  3  0  0  0  0  0  0  0  0
   -0.0000    2.4267    0.0000 O   0  5  0  0  0  0  0  0  0  0
   -0.0000    0.0000    0.0000 O   0  0  0  0  0  0  0  0  0  0
    6.2533    1.2133    0.0000 F   0  0  0  0  0  0  0  0  0  0
  1  2  4  0  0  0  0
  2  3  4  0  0  0  0
  3  4  4  0  0  0  0
  4  5  4  0  0  0  0
  5  6  4  0  0  0  0
  1  6  4  0  0  0  0
  5  7  1  0  0  0  0
  7  8  1  0  0  0  0
  7  9  2  0  0  0  0
  1 10  1  0  0  0  0
 10 11  1  0  0  0  0
 10 12  2  0  0  0  0
  4 13  1  0  0  0  0
M  END
>  <Compound Name> (169)
2,4-dinitro-1-fluorobenzene

>  <Formula> (169)
C6H3FN2O4

>  <LogP> (169)
1.49

>  <LUMO> (169)
-2.17

>  <MOL_ID> (169)
169

>  <Activity> (169)
1.2

$$$$
1-nitrophenazine
csChmFindW1207992328
[comments]
 17 19  0     0  0  0  0  0  0  1 V2000
    0.0000    2.0988    0.0000 C   0  0  0  0  0  0  0  0  0  0
    0.0000    0.6996    0.0000 C   0  0  0  0  0  0  0  0  0  0
    1.1660   -0.0000    0.0000 C   0  0  0  0  0  0  0  0  0  0
    2.3787    0.6996    0.0000 C   0  0  0  0  0  0  0  0  0  0
    2.3787    2.0988    0.0000 C   0  0  0  0  0  0  0  0  0  0
    1.1660    2.7985    0.0000 C   0  0  0  0  0  0  0  0  0  0
    3.5913   -0.0000    0.0000 N   0  0  0  0  0  0  0  0  0  0
    4.8040    0.6996    0.0000 C   0  0  0  0  0  0  0  0  0  0
    4.8040    2.0988    0.0000 C   0  0  0  0  0  0  0  0  0  0
    3.5913    2.7985    0.0000 N   0  0  0  0  0  0  0  0  0  0
    6.0167   -0.0000    0.0000 C   0  0  0  0  0  0  0  0  0  0
    7.2293    0.6996    0.0000 C   0  0  0  0  0  0  0  0  0  0
    7.2293    2.0988    0.0000 C   0  0  0  0  0  0  0  0  0  0
    6.0167    2.7985    0.0000 C   0  0  0  0  0  0  0  0  0  0
    6.0167    4.1977    0.0000 N   0  3  0  0  0  0  0  0  0  0
    7.2293    4.8507    0.0000 O   0  5  0  0  0  0  0  0  0  0
    4.8040    4.8507    0.0000 O   0  0  0  0  0  0  0  0  0  0
  1  2  4  0  0  0  0
  2  3  4  0  0  0  0
  3  4  4  0  0  0  0
  4  5  4  0  0  0  0
  5  6  4  0  0  0  0
  1  6  4  0  0  0  0
  4  7  4  0  0  0  0
  7  8  4  0  0  0  0
  8  9  4  0  0  0  0
  9 10  4  0  0  0  0
  5 10  4  0  0  0  0
  8 11  4  0  0  0  0
 11 12  4  0  0  0  0
 12 13  4  0  0  0  0
 13 14  4  0  0  0  0
  9 14  4  0  0  0  0
 14 15  1  0  0  0  0
 15 16  1  0  0  0  0
 15 17  2  0  0  0  0
M  END
>  <Compound Name> (170)
1-nitrophenazine

>  <Formula> (170)
C12H7N3O2

>  <LogP> (170)
2.52

>  <LUMO> (170)
-2.113

>  <MOL_ID> (170)
170

>  <Activity> (170)
0.87

$$$$
2,4,2',4'-tetranitrobiphenyl
csChmFindW1207992328
[comments]
 24 25  0     0  0  0  0  0  0  1 V2000
    2.7518    4.8506    0.0000 C   0  0  0  0  0  0  0  0  0  0
    2.0522    3.6380    0.0000 C   0  0  0  0  0  0  0  0  0  0
    2.7518    2.4253    0.0000 C   0  0  0  0  0  0  0  0  0  0
    4.1510    2.4253    0.0000 C   0  0  0  0  0  0  0  0  0  0
    4.8506    3.6380    0.0000 C   0  0  0  0  0  0  0  0  0  0
    4.1510    4.8506    0.0000 C   0  0  0  0  0  0  0  0  0  0
    6.2499    3.6380    0.0000 C   0  0  0  0  0  0  0  0  0  0
    6.9495    2.4253    0.0000 C   0  0  0  0  0  0  0  0  0  0
    8.3487    2.4253    0.0000 C   0  0  0  0  0  0  0  0  0  0
    9.0483    3.6380    0.0000 C   0  0  0  0  0  0  0  0  0  0
    8.3487    4.8506    0.0000 C   0  0  0  0  0  0  0  0  0  0
    6.9495    4.8506    0.0000 C   0  0  0  0  0  0  0  0  0  0
    6.2499    6.0633    0.0000 N   0  3  0  0  0  0  0  0  0  0
    6.9495    7.2760    0.0000 O   0  5  0  0  0  0  0  0  0  0
    4.8506    6.0633    0.0000 O   0  0  0  0  0  0  0  0  0  0
   10.4475    3.6380    0.0000 N   0  3  0  0  0  0  0  0  0  0
   11.1471    2.4253    0.0000 O   0  5  0  0  0  0  0  0  0  0
   11.1471    4.8506    0.0000 O   0  0  0  0  0  0  0  0  0  0
    4.8506    1.2127    0.0000 N   0  3  0  0  0  0  0  0  0  0
    4.1510    0.0000    0.0000 O   0  5  0  0  0  0  0  0  0  0
    6.2499    1.2127    0.0000 O   0  0  0  0  0  0  0  0  0  0
    0.6530    3.6380    0.0000 N   0  3  0  0  0  0  0  0  0  0
   -0.0000    4.8506    0.0000 O   0  5  0  0  0  0  0  0  0  0
   -0.0000    2.4253    0.0000 O   0  0  0  0  0  0  0  0  0  0
  1  2  4  0  0  0  0
  2  3  4  0  0  0  0
  3  4  4  0  0  0  0
  4  5  4  0  0  0  0
  5  6  4  0  0  0  0
  1  6  4  0  0  0  0
  5  7  1  0  0  0  0
  7  8  4  0  0  0  0
  8  9  4  0  0  0  0
  9 10  4  0  0  0  0
 10 11  4  0  0  0  0
 11 12  4  0  0  0  0
  7 12  4  0  0  0  0
 12 13  1  0  0  0  0
 13 14  1  0  0  0  0
 13 15  2  0  0  0  0
 10 16  1  0  0  0  0
 16 17  1  0  0  0  0
 16 18  2  0  0  0  0
  4 19  1  0  0  0  0
 19 20  1  0  0  0  0
 19 21  2  0  0  0  0
  2 22  1  0  0  0  0
 22 23  1  0  0  0  0
 22 24  2  0  0  0  0
M  END
>  <Compound Name> (171)
2,4,2',4'-tetranitrobiphenyl

>  <Formula> (171)
C12H6N4O8

>  <LogP> (171)
3

>  <LUMO> (171)
-2.508

>  <MOL_ID> (171)
171

>  <Activity> (171)
2.66

$$$$
6-nitroindazole
csChmFindW1207992328
[comments]
 12 13  0     0  0  0  0  0  0  1 V2000
    2.3787    3.4981    0.0000 C   0  0  0  0  0  0  0  0  0  0
    2.3787    2.0988    0.0000 C   0  0  0  0  0  0  0  0  0  0
    3.5913    1.3992    0.0000 C   0  0  0  0  0  0  0  0  0  0
    4.8040    2.0988    0.0000 C   0  0  0  0  0  0  0  0  0  0
    4.8040    3.4981    0.0000 C   0  0  0  0  0  0  0  0  0  0
    3.5913    4.1977    0.0000 C   0  0  0  0  0  0  0  0  0  0
    6.1566    1.6791    0.0000 N   0  0  0  1  0  0  0  0  0  0
    6.9495    2.7984    0.0000 N   0  0  0  0  0  0  0  0  0  0
    6.1566    3.9178    0.0000 C   0  0  0  0  0  0  0  0  0  0
    1.1660    1.3992    0.0000 N   0  3  0  0  0  0  0  0  0  0
   -0.0000    2.0988    0.0000 O   0  5  0  0  0  0  0  0  0  0
    1.1660    0.0000    0.0000 O   0  0  0  0  0  0  0  0  0  0
  1  2  4  0  0  0  0
  2  3  4  0  0  0  0
  3  4  4  0  0  0  0
  4  5  4  0  0  0  0
  5  6  4  0  0  0  0
  1  6  4  0  0  0  0
  4  7  4  0  0  0  0
  7  8  4  0  0  0  0
  8  9  4  0  0  0  0
  5  9  4  0  0  0  0
  2 10  1  0  0  0  0
 10 11  1  0  0  0  0
 10 12  2  0  0  0  0
M  END
>  <Compound Name> (172)
6-nitroindazole

>  <Formula> (172)
C7H4N3O2

>  <LogP> (172)
2.06

>  <LUMO> (172)
-1.487

>  <MOL_ID> (172)
172

>  <Activity> (172)
0.66

$$$$
3,4,4'-trinitrobiphenyl
csChmFindW1207992328
[comments]
 21 22  0     0  0  0  0  0  0  1 V2000
    2.7518    2.4253    0.0000 C   0  0  0  0  0  0  0  0  0  0
    2.0522    1.2127    0.0000 C   0  0  0  0  0  0  0  0  0  0
    2.7518    0.0000    0.0000 C   0  0  0  0  0  0  0  0  0  0
    4.1510    0.0000    0.0000 C   0  0  0  0  0  0  0  0  0  0
    4.8506    1.2127    0.0000 C   0  0  0  0  0  0  0  0  0  0
    4.1510    2.4253    0.0000 C   0  0  0  0  0  0  0  0  0  0
    6.2499    1.2127    0.0000 C   0  0  0  0  0  0  0  0  0  0
    6.9495    0.0000    0.0000 C   0  0  0  0  0  0  0  0  0  0
    8.3487    0.0000    0.0000 C   0  0  0  0  0  0  0  0  0  0
    9.0483    1.2127    0.0000 C   0  0  0  0  0  0  0  0  0  0
    8.3487    2.4253    0.0000 C   0  0  0  0  0  0  0  0  0  0
    6.9495    2.4253    0.0000 C   0  0  0  0  0  0  0  0  0  0
    9.0483    3.6380    0.0000 N   0  3  0  0  0  0  0  0  0  0
   10.4475    3.6380    0.0000 O   0  5  0  0  0  0  0  0  0  0
    8.3487    4.8040    0.0000 O   0  0  0  0  0  0  0  0  0  0
   10.4475    1.2127    0.0000 N   0  3  0  0  0  0  0  0  0  0
   11.1472    0.0000    0.0000 O   0  5  0  0  0  0  0  0  0  0
   11.1472    2.4253    0.0000 O   0  0  0  0  0  0  0  0  0  0
    0.6530    1.2127    0.0000 N   0  3  0  0  0  0  0  0  0  0
   -0.0000    2.4253    0.0000 O   0  5  0  0  0  0  0  0  0  0
   -0.0000    0.0000    0.0000 O   0  0  0  0  0  0  0  0  0  0
  1  2  4  0  0  0  0
  2  3  4  0  0  0  0
  3  4  4  0  0  0  0
  4  5  4  0  0  0  0
  5  6  4  0  0  0  0
  1  6  4  0  0  0  0
  5  7  1  0  0  0  0
  7  8  4  0  0  0  0
  8  9  4  0  0  0  0
  9 10  4  0  0  0  0
 10 11  4  0  0  0  0
 11 12  4  0  0  0  0
  7 12  4  0  0  0  0
 11 13  1  0  0  0  0
 13 14  1  0  0  0  0
 13 15  2  0  0  0  0
 10 16  1  0  0  0  0
 16 17  1  0  0  0  0
 16 18  2  0  0  0  0
  2 19  1  0  0  0  0
 19 20  1  0  0  0  0
 19 21  2  0  0  0  0
M  END
>  <Compound Name> (173)
3,4,4'-trinitrobiphenyl

>  <Formula> (173)
C12H7N3O6

>  <LogP> (173)
3.26

>  <LUMO> (173)
-2.328

>  <MOL_ID> (173)
173

>  <Activity> (173)
2.6

$$$$
3,9-dinitrofluoranthene
csChmFindW1207992328
[comments]
 22 25  0     0  0  0  0  0  0  1 V2000
    2.3800    4.2000    0.0000 C   0  0  0  0  0  0  0  0  0  0
    2.3800    2.8000    0.0000 C   0  0  0  0  0  0  0  0  0  0
    3.5933    2.1000    0.0000 C   0  0  0  0  0  0  0  0  0  0
    4.8066    2.8000    0.0000 C   0  0  0  0  0  0  0  0  0  0
    4.8066    4.2000    0.0000 C   0  0  0  0  0  0  0  0  0  0
    3.5933    4.9000    0.0000 C   0  0  0  0  0  0  0  0  0  0
    1.1667    4.9000    0.0000 C   0  0  0  0  0  0  0  0  0  0
    0.0000    4.2000    0.0000 C   0  0  0  0  0  0  0  0  0  0
    0.0000    2.8000    0.0000 C   0  0  0  0  0  0  0  0  0  0
    1.1667    2.1000    0.0000 C   0  0  0  0  0  0  0  0  0  0
    2.9400    6.3000    0.0000 C   0  0  0  0  0  0  0  0  0  0
    1.6333    6.3000    0.0000 C   0  0  0  0  0  0  0  0  0  0
    3.5933    7.4200    0.0000 C   0  0  0  0  0  0  0  0  0  0
    2.9400    8.5400    0.0000 C   0  0  0  0  0  0  0  0  0  0
    1.6333    8.5400    0.0000 C   0  0  0  0  0  0  0  0  0  0
    0.9800    7.4200    0.0000 C   0  0  0  0  0  0  0  0  0  0
    3.5933    0.7000    0.0000 N   0  3  0  0  0  0  0  0  0  0
    2.3800   -0.0000    0.0000 O   0  5  0  0  0  0  0  0  0  0
    4.8066   -0.0000    0.0000 O   0  0  0  0  0  0  0  0  0  0
    3.6400    9.7533    0.0000 N   0  3  0  0  0  0  0  0  0  0
    5.0400    9.7533    0.0000 O   0  5  0  0  0  0  0  0  0  0
    2.9400   10.9199    0.0000 O   0  0  0  0  0  0  0  0  0  0
  1  2  4  0  0  0  0
  2  3  4  0  0  0  0
  3  4  4  0  0  0  0
  4  5  4  0  0  0  0
  5  6  4  0  0  0  0
  1  6  4  0  0  0  0
  1  7  4  0  0  0  0
  7  8  4  0  0  0  0
  8  9  4  0  0  0  0
  9 10  4  0  0  0  0
  2 10  4  0  0  0  0
  6 11  1  0  0  0  0
  7 12  1  0  0  0  0
 11 12  4  0  0  0  0
 11 13  4  0  0  0  0
 13 14  4  0  0  0  0
 14 15  4  0  0  0  0
 15 16  4  0  0  0  0
 12 16  4  0  0  0  0
  3 17  1  0  0  0  0
 17 18  1  0  0  0  0
 17 19  2  0  0  0  0
 14 20  1  0  0  0  0
 20 21  1  0  0  0  0
 20 22  2  0  0  0  0
M  END
>  <Compound Name> (174)
3,9-dinitrofluoranthene

>  <Formula> (174)
C16H8N2O4

>  <LogP> (174)
4.44

>  <LUMO> (174)
-2.209

>  <MOL_ID> (174)
174

>  <Activity> (174)
5.02

$$$$
3-nitro-1,2,4,7,8-pentachlorodibenzo-1,4-dioxin
csChmFindW1207992328
[comments]
 22 24  0     0  0  0  0  0  0  1 V2000
    1.1660    3.4981    0.0000 C   0  0  0  0  0  0  0  0  0  0
    1.1660    2.0988    0.0000 C   0  0  0  0  0  0  0  0  0  0
    2.3787    1.3992    0.0000 C   0  0  0  0  0  0  0  0  0  0
    3.5914    2.0988    0.0000 C   0  0  0  0  0  0  0  0  0  0
    3.5914    3.4981    0.0000 C   0  0  0  0  0  0  0  0  0  0
    2.3787    4.1977    0.0000 C   0  0  0  0  0  0  0  0  0  0
    4.8040    1.3992    0.0000 O   0  0  0  0  0  0  0  0  0  0
    6.0167    2.0988    0.0000 C   0  0  0  0  0  0  0  0  0  0
    6.0167    3.4981    0.0000 C   0  0  0  0  0  0  0  0  0  0
    4.8040    4.1977    0.0000 O   0  0  0  0  0  0  0  0  0  0
    7.2294    1.3992    0.0000 C   0  0  0  0  0  0  0  0  0  0
    8.4420    2.0988    0.0000 C   0  0  0  0  0  0  0  0  0  0
    8.4420    3.4981    0.0000 C   0  0  0  0  0  0  0  0  0  0
    7.2294    4.1977    0.0000 C   0  0  0  0  0  0  0  0  0  0
    7.2294    5.5503    0.0000 Cl  0  0  0  0  0  0  0  0  0  0
    9.6547    4.1977    0.0000 Cl  0  0  0  0  0  0  0  0  0  0
    7.2294    0.0000    0.0000 Cl  0  0  0  0  0  0  0  0  0  0
    0.0000    1.3992    0.0000 Cl  0  0  0  0  0  0  0  0  0  0
    0.0000    4.1977    0.0000 Cl  0  0  0  0  0  0  0  0  0  0
    9.6547    1.3992    0.0000 N   0  3  0  0  0  0  0  0  0  0
    9.6547    0.0000    0.0000 O   0  5  0  0  0  0  0  0  0  0
   10.8674    2.0988    0.0000 O   0  0  0  0  0  0  0  0  0  0
  1  2  4  0  0  0  0
  2  3  4  0  0  0  0
  3  4  4  0  0  0  0
  4  5  4  0  0  0  0
  5  6  4  0  0  0  0
  1  6  4  0  0  0  0
  4  7  1  0  0  0  0
  7  8  1  0  0  0  0
  8  9  4  0  0  0  0
  9 10  1  0  0  0  0
  5 10  1  0  0  0  0
  8 11  4  0  0  0  0
 11 12  4  0  0  0  0
 12 13  4  0  0  0  0
 13 14  4  0  0  0  0
  9 14  4  0  0  0  0
 14 15  1  0  0  0  0
 13 16  1  0  0  0  0
 11 17  1  0  0  0  0
  2 18  1  0  0  0  0
  1 19  1  0  0  0  0
 12 20  1  0  0  0  0
 20 21  1  0  0  0  0
 20 22  2  0  0  0  0
M  END
>  <Compound Name> (175)
3-nitro-1,2,4,7,8-pentachlorodibenzo-1,4-dioxin

>  <Formula> (175)
C12H2Cl5NO4

>  <LogP> (175)
7.84

>  <LUMO> (175)
-1.616

>  <MOL_ID> (175)
175

>  <Activity> (175)
-0.33

$$$$
6-nitroindene
csChmFindW1207992328
[comments]
 12 13  0     0  0  0  0  0  0  1 V2000
    2.3787    3.4980    0.0000 C   0  0  0  0  0  0  0  0  0  0
    2.3787    2.0988    0.0000 C   0  0  0  0  0  0  0  0  0  0
    3.5913    1.3992    0.0000 C   0  0  0  0  0  0  0  0  0  0
    4.8040    2.0988    0.0000 C   0  0  0  0  0  0  0  0  0  0
    4.8040    3.4980    0.0000 C   0  0  0  0  0  0  0  0  0  0
    3.5913    4.1977    0.0000 C   0  0  0  0  0  0  0  0  0  0
    6.0166    1.3992    0.0000 C   0  0  0  0  0  0  0  0  0  0
    7.2293    2.0988    0.0000 C   0  0  0  0  0  0  0  0  0  0
    7.2293    3.4980    0.0000 C   0  0  0  0  0  0  0  0  0  0
    1.1660    1.3992    0.0000 N   0  3  0  0  0  0  0  0  0  0
   -0.0000    2.0988    0.0000 O   0  5  0  0  0  0  0  0  0  0
    1.1660    0.0000    0.0000 O   0  0  0  0  0  0  0  0  0  0
  1  2  4  0  0  0  0
  2  3  4  0  0  0  0
  3  4  4  0  0  0  0
  4  5  4  0  0  0  0
  5  6  4  0  0  0  0
  1  6  4  0  0  0  0
  4  7  1  0  0  0  0
  7  8  1  0  0  0  0
  8  9  2  0  0  0  0
  5  9  1  0  0  0  0
  2 10  1  0  0  0  0
 10 11  1  0  0  0  0
 10 12  2  0  0  0  0
M  END
>  <Compound Name> (176)
6-nitroindene

>  <Formula> (176)
C9H7NO2

>  <LogP> (176)
2.74

>  <LUMO> (176)
-1.304

>  <MOL_ID> (176)
176

>  <Activity> (176)
0.96

$$$$
1,9-dinitrophenazine
csChmFindW1207992328
[comments]
 20 22  0     0  0  0  0  0  0  1 V2000
   -0.0000    2.1000    0.0000 C   0  0  0  0  0  0  0  0  0  0
   -0.0000    0.7000    0.0000 C   0  0  0  0  0  0  0  0  0  0
    1.1667    0.0000    0.0000 C   0  0  0  0  0  0  0  0  0  0
    2.3800    0.7000    0.0000 C   0  0  0  0  0  0  0  0  0  0
    2.3800    2.1000    0.0000 C   0  0  0  0  0  0  0  0  0  0
    1.1667    2.8000    0.0000 C   0  0  0  0  0  0  0  0  0  0
    3.5933    0.0000    0.0000 N   0  0  0  0  0  0  0  0  0  0
    4.8067    0.7000    0.0000 C   0  0  0  0  0  0  0  0  0  0
    4.8067    2.1000    0.0000 C   0  0  0  0  0  0  0  0  0  0
    3.5933    2.8000    0.0000 N   0  0  0  0  0  0  0  0  0  0
    6.0200    0.0000    0.0000 C   0  0  0  0  0  0  0  0  0  0
    7.2333    0.7000    0.0000 C   0  0  0  0  0  0  0  0  0  0
    7.2333    2.1000    0.0000 C   0  0  0  0  0  0  0  0  0  0
    6.0200    2.8000    0.0000 C   0  0  0  0  0  0  0  0  0  0
    6.0200    4.2000    0.0000 N   0  3  0  0  0  0  0  0  0  0
    7.2333    4.8533    0.0000 O   0  5  0  0  0  0  0  0  0  0
    4.8067    4.8533    0.0000 O   0  0  0  0  0  0  0  0  0  0
    1.1667    4.2000    0.0000 N   0  3  0  0  0  0  0  0  0  0
    2.3800    4.8533    0.0000 O   0  5  0  0  0  0  0  0  0  0
   -0.0000    4.8533    0.0000 O   0  0  0  0  0  0  0  0  0  0
  1  2  4  0  0  0  0
  2  3  4  0  0  0  0
  3  4  4  0  0  0  0
  4  5  4  0  0  0  0
  5  6  4  0  0  0  0
  1  6  4  0  0  0  0
  4  7  4  0  0  0  0
  7  8  4  0  0  0  0
  8  9  4  0  0  0  0
  9 10  4  0  0  0  0
  5 10  4  0  0  0  0
  8 11  4  0  0  0  0
 11 12  4  0  0  0  0
 12 13  4  0  0  0  0
 13 14  4  0  0  0  0
  9 14  4  0  0  0  0
 14 15  1  0  0  0  0
 15 16  1  0  0  0  0
 15 17  2  0  0  0  0
  6 18  1  0  0  0  0
 18 19  1  0  0  0  0
 18 20  2  0  0  0  0
M  END
>  <Compound Name> (177)
1,9-dinitrophenazine

>  <Formula> (177)
C12H6N4O4

>  <LogP> (177)
2.29

>  <LUMO> (177)
-2.614

>  <MOL_ID> (177)
177

>  <Activity> (177)
1.26

$$$$
2-methyl-7-nitroindazole
csChmFindW1207992328
[comments]
 13 14  0     0  0  0  0  0  0  1 V2000
    0.0933    2.1000    0.0000 C   0  0  0  0  0  0  0  0  0  0
    0.0933    0.7000    0.0000 C   0  0  0  0  0  0  0  0  0  0
    1.2133   -0.0000    0.0000 C   0  0  0  0  0  0  0  0  0  0
    2.4267    0.7000    0.0000 C   0  0  0  0  0  0  0  0  0  0
    2.4267    2.1000    0.0000 C   0  0  0  0  0  0  0  0  0  0
    1.2133    2.7533    0.0000 C   0  0  0  0  0  0  0  0  0  0
    3.7800    0.2800    0.0000 C   0  0  0  0  0  0  0  0  0  0
    4.5733    1.4000    0.0000 N   0  0  0  0  0  0  0  0  0  0
    3.7800    2.5200    0.0000 N   0  0  0  0  0  0  0  0  0  0
    5.9733    1.4000    0.0000 C   0  0  0  0  0  0  0  0  0  0
    1.2133    4.1533    0.0000 N   0  3  0  0  0  0  0  0  0  0
    2.4267    4.8533    0.0000 O   0  5  0  0  0  0  0  0  0  0
    0.0000    4.8533    0.0000 O   0  0  0  0  0  0  0  0  0  0
  1  2  4  0  0  0  0
  2  3  4  0  0  0  0
  3  4  4  0  0  0  0
  4  5  4  0  0  0  0
  5  6  4  0  0  0  0
  1  6  4  0  0  0  0
  4  7  4  0  0  0  0
  7  8  4  0  0  0  0
  8  9  4  0  0  0  0
  5  9  4  0  0  0  0
  8 10  1  0  0  0  0
  6 11  1  0  0  0  0
 11 12  1  0  0  0  0
 11 13  2  0  0  0  0
M  END
>  <Compound Name> (178)
2-methyl-7-nitroindazole

>  <Formula> (178)
C8H8N3O2

>  <LogP> (178)
1.77

>  <LUMO> (178)
-1.213

>  <MOL_ID> (178)
178

>  <Activity> (178)
0.23

$$$$
4,4'-dinitrochalcone
csChmFindW1207992328
[comments]
 22 23  0     0  0  0  0  0  0  1 V2000
    2.0988    1.2127    0.0000 C   0  0  0  0  0  0  0  0  0  0
    2.7985    0.0000    0.0000 C   0  0  0  0  0  0  0  0  0  0
    4.1977    0.0000    0.0000 C   0  0  0  0  0  0  0  0  0  0
    4.8973    1.2127    0.0000 C   0  0  0  0  0  0  0  0  0  0
    4.1977    2.4253    0.0000 C   0  0  0  0  0  0  0  0  0  0
    2.7985    2.4253    0.0000 C   0  0  0  0  0  0  0  0  0  0
    6.2965    1.2127    0.0000 C   0  0  0  0  0  0  0  0  0  0
    6.9961    2.4253    0.0000 C   0  0  0  0  0  0  0  0  0  0
    8.3954    2.4253    0.0000 C   0  0  0  0  0  0  0  0  0  0
    8.3954    3.7779    0.0000 O   0  0  0  0  0  0  0  0  0  0
    9.7946    2.4253    0.0000 C   0  0  0  0  0  0  0  0  0  0
   10.4942    1.2127    0.0000 C   0  0  0  0  0  0  0  0  0  0
   11.8934    1.2127    0.0000 C   0  0  0  0  0  0  0  0  0  0
   12.5930    2.4253    0.0000 C   0  0  0  0  0  0  0  0  0  0
   11.8934    3.6380    0.0000 C   0  0  0  0  0  0  0  0  0  0
   10.4942    3.6380    0.0000 C   0  0  0  0  0  0  0  0  0  0
   13.9923    2.4253    0.0000 N   0  3  0  0  0  0  0  0  0  0
   14.6919    1.2127    0.0000 O   0  5  0  0  0  0  0  0  0  0
   14.6919    3.6380    0.0000 O   0  0  0  0  0  0  0  0  0  0
    0.6996    1.2127    0.0000 N   0  3  0  0  0  0  0  0  0  0
    0.0000    2.4253    0.0000 O   0  5  0  0  0  0  0  0  0  0
    0.0000    0.0000    0.0000 O   0  0  0  0  0  0  0  0  0  0
  1  2  4  0  0  0  0
  2  3  4  0  0  0  0
  3  4  4  0  0  0  0
  4  5  4  0  0  0  0
  5  6  4  0  0  0  0
  1  6  4  0  0  0  0
  4  7  1  0  0  0  0
  7  8  2  0  0  0  0
  8  9  1  0  0  0  0
  9 10  2  0  0  0  0
  9 11  1  0  0  0  0
 11 12  4  0  0  0  0
 12 13  4  0  0  0  0
 13 14  4  0  0  0  0
 14 15  4  0  0  0  0
 15 16  4  0  0  0  0
 11 16  4  0  0  0  0
 14 17  1  0  0  0  0
 17 18  1  0  0  0  0
 17 19  2  0  0  0  0
  1 20  1  0  0  0  0
 20 21  1  0  0  0  0
 20 22  2  0  0  0  0
M  END
>  <Compound Name> (179)
4,4'-dinitrochalcone

>  <Formula> (179)
C15H10N2O5

>  <LogP> (179)
2.73

>  <LUMO> (179)
-1.889

>  <MOL_ID> (179)
179

>  <Activity> (179)
-1.42

$$$$
5,8-dinitrobenzo[ghi]perylene
csChmFindW1207992328
[comments]
 28 33  0     0  0  0  0  0  0  1 V2000
    0.6533    7.2800    0.0000 C   0  0  0  0  0  0  0  0  0  0
    0.0000    6.0666    0.0000 C   0  0  0  0  0  0  0  0  0  0
    0.6533    4.8533    0.0000 C   0  0  0  0  0  0  0  0  0  0
    2.0533    4.8533    0.0000 C   0  0  0  0  0  0  0  0  0  0
    2.7533    6.0666    0.0000 C   0  0  0  0  0  0  0  0  0  0
    2.0533    7.2800    0.0000 C   0  0  0  0  0  0  0  0  0  0
    4.1533    6.0666    0.0000 C   0  0  0  0  0  0  0  0  0  0
    4.8533    7.2800    0.0000 C   0  0  0  0  0  0  0  0  0  0
    4.1533    8.4466    0.0000 C   0  0  0  0  0  0  0  0  0  0
    2.7533    8.4466    0.0000 C   0  0  0  0  0  0  0  0  0  0
    4.8533    4.8533    0.0000 C   0  0  0  0  0  0  0  0  0  0
    6.2533    4.8533    0.0000 C   0  0  0  0  0  0  0  0  0  0
    7.0000    6.0666    0.0000 C   0  0  0  0  0  0  0  0  0  0
    6.2533    7.2800    0.0000 C   0  0  0  0  0  0  0  0  0  0
    2.7533    3.6400    0.0000 C   0  0  0  0  0  0  0  0  0  0
    4.1533    3.6400    0.0000 C   0  0  0  0  0  0  0  0  0  0
    0.0000    3.6400    0.0000 C   0  0  0  0  0  0  0  0  0  0
    0.6533    2.4266    0.0000 C   0  0  0  0  0  0  0  0  0  0
    2.0533    2.4266    0.0000 C   0  0  0  0  0  0  0  0  0  0
    4.8533    2.4266    0.0000 C   0  0  0  0  0  0  0  0  0  0
    6.2533    2.4266    0.0000 C   0  0  0  0  0  0  0  0  0  0
    7.0000    3.6400    0.0000 C   0  0  0  0  0  0  0  0  0  0
    8.3533    3.6400    0.0000 N   0  3  0  0  0  0  0  0  0  0
    9.0533    2.4266    0.0000 O   0  5  0  0  0  0  0  0  0  0
    9.0533    4.8533    0.0000 O   0  0  0  0  0  0  0  0  0  0
    2.7533    1.2133    0.0000 N   0  3  0  0  0  0  0  0  0  0
    2.0533    0.0000    0.0000 O   0  5  0  0  0  0  0  0  0  0
    4.1533    1.2133    0.0000 O   0  0  0  0  0  0  0  0  0  0
  1  2  4  0  0  0  0
  2  3  4  0  0  0  0
  3  4  4  0  0  0  0
  4  5  4  0  0  0  0
  5  6  4  0  0  0  0
  1  6  4  0  0  0  0
  5  7  4  0  0  0  0
  7  8  4  0  0  0  0
  8  9  4  0  0  0  0
  9 10  4  0  0  0  0
  6 10  4  0  0  0  0
  7 11  4  0  0  0  0
 11 12  4  0  0  0  0
 12 13  4  0  0  0  0
 13 14  4  0  0  0  0
  8 14  4  0  0  0  0
  4 15  4  0  0  0  0
 15 16  4  0  0  0  0
 11 16  4  0  0  0  0
  3 17  4  0  0  0  0
 17 18  4  0  0  0  0
 18 19  4  0  0  0  0
 15 19  4  0  0  0  0
 16 20  4  0  0  0  0
 20 21  4  0  0  0  0
 21 22  4  0  0  0  0
 12 22  4  0  0  0  0
 22 23  1  0  0  0  0
 23 24  1  0  0  0  0
 23 25  2  0  0  0  0
 19 26  1  0  0  0  0
 26 27  1  0  0  0  0
 26 28  2  0  0  0  0
M  END
>  <Compound Name> (180)
5,8-dinitrobenzo[ghi]perylene

>  <Formula> (180)
C22H10N2O4

>  <LogP> (180)
6.07

>  <LUMO> (180)
-2.182

>  <MOL_ID> (180)
180

>  <Activity> (180)
4.33

$$$$
2-nitro-p-phenylenediamine
csChmFindW1207992328
[comments]
 11 11  0     0  0  0  0  0  0  1 V2000
    1.3533    1.2133    0.0000 C   0  0  0  0  0  0  0  0  0  0
    2.0533    0.0000    0.0000 C   0  0  0  0  0  0  0  0  0  0
    3.4533    0.0000    0.0000 C   0  0  0  0  0  0  0  0  0  0
    4.1534    1.2133    0.0000 C   0  0  0  0  0  0  0  0  0  0
    3.4533    2.4267    0.0000 C   0  0  0  0  0  0  0  0  0  0
    2.0533    2.4267    0.0000 C   0  0  0  0  0  0  0  0  0  0
    5.5534    1.2133    0.0000 N   0  0  0  2  0  0  0  0  0  0
    0.0000    1.2133    0.0000 N   0  0  0  2  0  0  0  0  0  0
    4.1534    3.6400    0.0000 N   0  3  0  0  0  0  0  0  0  0
    5.5534    3.6400    0.0000 O   0  5  0  0  0  0  0  0  0  0
    3.4533    4.8067    0.0000 O   0  0  0  0  0  0  0  0  0  0
  1  2  4  0  0  0  0
  2  3  4  0  0  0  0
  3  4  4  0  0  0  0
  4  5  4  0  0  0  0
  5  6  4  0  0  0  0
  1  6  4  0  0  0  0
  4  7  1  0  0  0  0
  1  8  1  0  0  0  0
  5  9  1  0  0  0  0
  9 10  1  0  0  0  0
  9 11  2  0  0  0  0
M  END
>  <Compound Name> (181)
2-nitro-p-phenylenediamine

>  <Formula> (181)
C6H7N3O2

>  <LogP> (181)
0.53

>  <LUMO> (181)
-0.727

>  <MOL_ID> (181)
181

>  <Activity> (181)
-1.11

$$$$
8-nitroquinaldine
csChmFindW1207992328
[comments]
 14 15  0     0  0  0  0  0  0  1 V2000
    2.4253    4.1977    0.0000 C   0  0  0  0  0  0  0  0  0  0
    2.4253    2.7984    0.0000 C   0  0  0  0  0  0  0  0  0  0
    3.6380    2.0988    0.0000 N   0  0  0  0  0  0  0  0  0  0
    4.8506    2.7984    0.0000 C   0  0  0  0  0  0  0  0  0  0
    4.8506    4.1977    0.0000 C   0  0  0  0  0  0  0  0  0  0
    3.6380    4.8973    0.0000 C   0  0  0  0  0  0  0  0  0  0
    1.2127    4.8973    0.0000 C   0  0  0  0  0  0  0  0  0  0
    0.0000    4.1977    0.0000 C   0  0  0  0  0  0  0  0  0  0
    0.0000    2.7984    0.0000 C   0  0  0  0  0  0  0  0  0  0
    1.2127    2.0988    0.0000 C   0  0  0  0  0  0  0  0  0  0
    6.0633    2.0988    0.0000 C   0  0  0  0  0  0  0  0  0  0
    1.2127    0.6996    0.0000 N   0  3  0  0  0  0  0  0  0  0
    0.0000   -0.0000    0.0000 O   0  5  0  0  0  0  0  0  0  0
    2.4253   -0.0000    0.0000 O   0  0  0  0  0  0  0  0  0  0
  1  2  4  0  0  0  0
  2  3  4  0  0  0  0
  3  4  4  0  0  0  0
  4  5  4  0  0  0  0
  5  6  4  0  0  0  0
  1  6  4  0  0  0  0
  1  7  4  0  0  0  0
  7  8  4  0  0  0  0
  8  9  4  0  0  0  0
  9 10  4  0  0  0  0
  2 10  4  0  0  0  0
  4 11  1  0  0  0  0
 10 12  1  0  0  0  0
 12 13  1  0  0  0  0
 12 14  2  0  0  0  0
M  END
>  <Compound Name> (182)
8-nitroquinaldine

>  <Formula> (182)
C10H8N2O2

>  <LogP> (182)
1.99

>  <LUMO> (182)
-1.366

>  <MOL_ID> (182)
182

>  <Activity> (182)
-2.7

$$$$
1,8-dinitropyrene
csChmFindW1207992328
[comments]
 22 25  0     0  0  0  0  0  0  1 V2000
    2.3787    2.0988    0.0000 C   0  0  0  0  0  0  0  0  0  0
    2.3787    0.6996    0.0000 C   0  0  0  0  0  0  0  0  0  0
    3.5913    0.0000    0.0000 C   0  0  0  0  0  0  0  0  0  0
    4.8040    0.6996    0.0000 C   0  0  0  0  0  0  0  0  0  0
    4.8040    2.0988    0.0000 C   0  0  0  0  0  0  0  0  0  0
    3.5913    2.7984    0.0000 C   0  0  0  0  0  0  0  0  0  0
    6.0167    2.7984    0.0000 C   0  0  0  0  0  0  0  0  0  0
    6.0167    4.1977    0.0000 C   0  0  0  0  0  0  0  0  0  0
    4.8040    4.8973    0.0000 C   0  0  0  0  0  0  0  0  0  0
    3.5913    4.1977    0.0000 C   0  0  0  0  0  0  0  0  0  0
    7.2293    2.0988    0.0000 C   0  0  0  0  0  0  0  0  0  0
    8.4420    2.7984    0.0000 C   0  0  0  0  0  0  0  0  0  0
    8.4420    4.1977    0.0000 C   0  0  0  0  0  0  0  0  0  0
    7.2293    4.8973    0.0000 C   0  0  0  0  0  0  0  0  0  0
    6.0167    0.0000    0.0000 C   0  0  0  0  0  0  0  0  0  0
    7.2293    0.6996    0.0000 C   0  0  0  0  0  0  0  0  0  0
    7.2293    6.2965    0.0000 N   0  3  0  0  0  0  0  0  0  0
    8.4420    6.9495    0.0000 O   0  5  0  0  0  0  0  0  0  0
    6.0167    6.9495    0.0000 O   0  0  0  0  0  0  0  0  0  0
    1.1660    2.7984    0.0000 N   0  3  0  0  0  0  0  0  0  0
    1.1660    4.1977    0.0000 O   0  5  0  0  0  0  0  0  0  0
   -0.0000    2.0988    0.0000 O   0  0  0  0  0  0  0  0  0  0
  1  2  4  0  0  0  0
  2  3  4  0  0  0  0
  3  4  4  0  0  0  0
  4  5  4  0  0  0  0
  5  6  4  0  0  0  0
  1  6  4  0  0  0  0
  5  7  4  0  0  0  0
  7  8  4  0  0  0  0
  8  9  4  0  0  0  0
  9 10  4  0  0  0  0
  6 10  4  0  0  0  0
  7 11  4  0  0  0  0
 11 12  4  0  0  0  0
 12 13  4  0  0  0  0
 13 14  4  0  0  0  0
  8 14  4  0  0  0  0
  4 15  4  0  0  0  0
 15 16  4  0  0  0  0
 11 16  4  0  0  0  0
 14 17  1  0  0  0  0
 17 18  1  0  0  0  0
 17 19  2  0  0  0  0
  1 20  1  0  0  0  0
 20 21  1  0  0  0  0
 20 22  2  0  0  0  0
M  END
>  <Compound Name> (183)
1,8-dinitropyrene

>  <Formula> (183)
C16H8N2O4

>  <LogP> (183)
4.44

>  <LUMO> (183)
-2.294

>  <MOL_ID> (183)
183

>  <Activity> (183)
5.39

$$$$
3,7-dinitrofluoranthene
csChmFindW1207992328
[comments]
 22 25  0     0  0  0  0  0  0  1 V2000
    3.5447    4.1977    0.0000 C   0  0  0  0  0  0  0  0  0  0
    3.5447    2.7984    0.0000 C   0  0  0  0  0  0  0  0  0  0
    4.7574    2.0988    0.0000 C   0  0  0  0  0  0  0  0  0  0
    5.9700    2.7984    0.0000 C   0  0  0  0  0  0  0  0  0  0
    5.9700    4.1977    0.0000 C   0  0  0  0  0  0  0  0  0  0
    4.7574    4.8973    0.0000 C   0  0  0  0  0  0  0  0  0  0
    2.3320    4.8973    0.0000 C   0  0  0  0  0  0  0  0  0  0
    1.1194    4.1977    0.0000 C   0  0  0  0  0  0  0  0  0  0
    1.1194    2.7984    0.0000 C   0  0  0  0  0  0  0  0  0  0
    2.3320    2.0988    0.0000 C   0  0  0  0  0  0  0  0  0  0
    4.2909    6.2965    0.0000 C   0  0  0  0  0  0  0  0  0  0
    2.7984    6.2965    0.0000 C   0  0  0  0  0  0  0  0  0  0
    5.0372    7.6024    0.0000 C   0  0  0  0  0  0  0  0  0  0
    4.2909    8.8617    0.0000 C   0  0  0  0  0  0  0  0  0  0
    2.7984    8.8617    0.0000 C   0  0  0  0  0  0  0  0  0  0
    2.0522    7.6024    0.0000 C   0  0  0  0  0  0  0  0  0  0
    4.7574    0.6996    0.0000 N   0  3  0  0  0  0  0  0  0  0
    3.5447    0.0000    0.0000 O   0  5  0  0  0  0  0  0  0  0
    5.9700    0.0000    0.0000 O   0  0  0  0  0  0  0  0  0  0
    0.6530    7.6024    0.0000 N   0  3  0  0  0  0  0  0  0  0
   -0.0000    8.8151    0.0000 O   0  5  0  0  0  0  0  0  0  0
   -0.0000    6.3898    0.0000 O   0  0  0  0  0  0  0  0  0  0
  1  2  4  0  0  0  0
  2  3  4  0  0  0  0
  3  4  4  0  0  0  0
  4  5  4  0  0  0  0
  5  6  4  0  0  0  0
  1  6  4  0  0  0  0
  1  7  4  0  0  0  0
  7  8  4  0  0  0  0
  8  9  4  0  0  0  0
  9 10  4  0  0  0  0
  2 10  4  0  0  0  0
  6 11  1  0  0  0  0
  7 12  1  0  0  0  0
 11 12  4  0  0  0  0
 11 13  4  0  0  0  0
 13 14  4  0  0  0  0
 14 15  4  0  0  0  0
 15 16  4  0  0  0  0
 12 16  4  0  0  0  0
  3 17  1  0  0  0  0
 17 18  1  0  0  0  0
 17 19  2  0  0  0  0
 16 20  1  0  0  0  0
 20 21  1  0  0  0  0
 20 22  2  0  0  0  0
M  END
>  <Compound Name> (184)
3,7-dinitrofluoranthene

>  <Formula> (184)
C16H8N2O4

>  <LogP> (184)
4.44

>  <LUMO> (184)
-2.074

>  <MOL_ID> (184)
184

>  <Activity> (184)
5.09

$$$$
3,4-dinitro-1-fluorobenzene
csChmFindW1207992328
[comments]
 13 13  0     0  0  0  0  0  0  1 V2000
    1.3526    1.2127    0.0000 C   0  0  0  0  0  0  0  0  0  0
    2.0522    0.0000    0.0000 C   0  0  0  0  0  0  0  0  0  0
    3.4514    0.0000    0.0000 C   0  0  0  0  0  0  0  0  0  0
    4.1510    1.2127    0.0000 C   0  0  0  0  0  0  0  0  0  0
    3.4514    2.4253    0.0000 C   0  0  0  0  0  0  0  0  0  0
    2.0522    2.4253    0.0000 C   0  0  0  0  0  0  0  0  0  0
   -0.0000    1.2127    0.0000 F   0  0  0  0  0  0  0  0  0  0
    4.1510    3.6380    0.0000 N   0  3  0  0  0  0  0  0  0  0
    5.5502    3.6380    0.0000 O   0  5  0  0  0  0  0  0  0  0
    3.4514    4.8040    0.0000 O   0  0  0  0  0  0  0  0  0  0
    5.5502    1.2127    0.0000 N   0  3  0  0  0  0  0  0  0  0
    6.2498    0.0000    0.0000 O   0  5  0  0  0  0  0  0  0  0
    6.2498    2.4253    0.0000 O   0  0  0  0  0  0  0  0  0  0
  1  2  4  0  0  0  0
  2  3  4  0  0  0  0
  3  4  4  0  0  0  0
  4  5  4  0  0  0  0
  5  6  4  0  0  0  0
  1  6  4  0  0  0  0
  1  7  1  0  0  0  0
  5  8  1  0  0  0  0
  8  9  1  0  0  0  0
  8 10  2  0  0  0  0
  4 11  1  0  0  0  0
 11 12  1  0  0  0  0
 11 13  2  0  0  0  0
M  END
>  <Compound Name> (185)
3,4-dinitro-1-fluorobenzene

>  <Formula> (185)
C6H3FN2O4

>  <LogP> (185)
1.89

>  <LUMO> (185)
-2.09

>  <MOL_ID> (185)
185

>  <Activity> (185)
-1.84

$$$$
5-nitroindoline
csChmFindW1207992328
[comments]
 12 13  0     0  0  0  0  0  0  1 V2000
    2.3787    2.0988    0.0000 C   0  0  0  0  0  0  0  0  0  0
    2.3787    0.6996    0.0000 C   0  0  0  0  0  0  0  0  0  0
    3.5913    0.0000    0.0000 C   0  0  0  0  0  0  0  0  0  0
    4.8040    0.6996    0.0000 C   0  0  0  0  0  0  0  0  0  0
    4.8040    2.0988    0.0000 C   0  0  0  0  0  0  0  0  0  0
    3.5913    2.7984    0.0000 C   0  0  0  0  0  0  0  0  0  0
    6.1566    0.2798    0.0000 N   0  0  0  1  0  0  0  0  0  0
    6.9495    1.3992    0.0000 C   0  0  0  0  0  0  0  0  0  0
    6.1566    2.5186    0.0000 C   0  0  0  0  0  0  0  0  0  0
    1.1660    2.7984    0.0000 N   0  3  0  0  0  0  0  0  0  0
    1.1660    4.1977    0.0000 O   0  5  0  0  0  0  0  0  0  0
   -0.0000    2.0988    0.0000 O   0  0  0  0  0  0  0  0  0  0
  1  2  4  0  0  0  0
  2  3  4  0  0  0  0
  3  4  4  0  0  0  0
  4  5  4  0  0  0  0
  5  6  4  0  0  0  0
  1  6  4  0  0  0  0
  4  7  1  0  0  0  0
  7  8  1  0  0  0  0
  8  9  1  0  0  0  0
  5  9  1  0  0  0  0
  1 10  1  0  0  0  0
 10 11  1  0  0  0  0
 10 12  2  0  0  0  0
M  END
>  <Compound Name> (186)
5-nitroindoline

>  <Formula> (186)
C8H8N2O2

>  <LogP> (186)
2.07

>  <LUMO> (186)
-0.574

>  <MOL_ID> (186)
186

>  <Activity> (186)
-0.17

$$$$
2-nitrotriphenylene
csChmFindW1207992328
[comments]
 21 24  0     0  0  0  0  0  0  1 V2000
    2.3787    4.1977    0.0000 C   0  0  0  0  0  0  0  0  0  0
    2.3787    2.7984    0.0000 C   0  0  0  0  0  0  0  0  0  0
    3.5913    2.0988    0.0000 C   0  0  0  0  0  0  0  0  0  0
    4.8040    2.7984    0.0000 C   0  0  0  0  0  0  0  0  0  0
    4.8040    4.1977    0.0000 C   0  0  0  0  0  0  0  0  0  0
    3.5913    4.8973    0.0000 C   0  0  0  0  0  0  0  0  0  0
    1.1660    4.8973    0.0000 C   0  0  0  0  0  0  0  0  0  0
   -0.0000    4.1977    0.0000 C   0  0  0  0  0  0  0  0  0  0
   -0.0000    2.7984    0.0000 C   0  0  0  0  0  0  0  0  0  0
    1.1660    2.0988    0.0000 C   0  0  0  0  0  0  0  0  0  0
    6.0167    4.8973    0.0000 C   0  0  0  0  0  0  0  0  0  0
    6.0167    6.2965    0.0000 C   0  0  0  0  0  0  0  0  0  0
    4.8040    6.9961    0.0000 C   0  0  0  0  0  0  0  0  0  0
    3.5913    6.2965    0.0000 C   0  0  0  0  0  0  0  0  0  0
    3.5913    0.6996    0.0000 C   0  0  0  0  0  0  0  0  0  0
    4.8040    0.0000    0.0000 C   0  0  0  0  0  0  0  0  0  0
    6.0167    0.6996    0.0000 C   0  0  0  0  0  0  0  0  0  0
    6.0167    2.0988    0.0000 C   0  0  0  0  0  0  0  0  0  0
    4.8040    8.3953    0.0000 N   0  3  0  0  0  0  0  0  0  0
    6.0167    9.0950    0.0000 O   0  5  0  0  0  0  0  0  0  0
    3.5913    9.0950    0.0000 O   0  0  0  0  0  0  0  0  0  0
  1  2  4  0  0  0  0
  2  3  4  0  0  0  0
  3  4  4  0  0  0  0
  4  5  4  0  0  0  0
  5  6  4  0  0  0  0
  1  6  4  0  0  0  0
  1  7  4  0  0  0  0
  7  8  4  0  0  0  0
  8  9  4  0  0  0  0
  9 10  4  0  0  0  0
  2 10  4  0  0  0  0
  5 11  4  0  0  0  0
 11 12  4  0  0  0  0
 12 13  4  0  0  0  0
 13 14  4  0  0  0  0
  6 14  4  0  0  0  0
  3 15  4  0  0  0  0
 15 16  4  0  0  0  0
 16 17  4  0  0  0  0
 17 18  4  0  0  0  0
  4 18  4  0  0  0  0
 13 19  1  0  0  0  0
 19 20  1  0  0  0  0
 19 21  2  0  0  0  0
M  END
>  <Compound Name> (187)
2-nitrotriphenylene

>  <Formula> (187)
C18H11NO2

>  <LogP> (187)
5.41

>  <LUMO> (187)
-1.276

>  <MOL_ID> (187)
187

>  <Activity> (187)
4.09

$$$$
3-nitrocarbazole
csChmFindW1207992328
[comments]
 16 18  0     0  0  0  0  0  0  1 V2000
   -0.0000    2.0988    0.0000 C   0  0  0  0  0  0  0  0  0  0
   -0.0000    0.6996    0.0000 C   0  0  0  0  0  0  0  0  0  0
    1.1660   -0.0000    0.0000 C   0  0  0  0  0  0  0  0  0  0
    2.3787    0.6996    0.0000 C   0  0  0  0  0  0  0  0  0  0
    2.3787    2.0988    0.0000 C   0  0  0  0  0  0  0  0  0  0
    1.1660    2.7984    0.0000 C   0  0  0  0  0  0  0  0  0  0
    3.5913   -0.0000    0.0000 N   0  0  0  1  0  0  0  0  0  0
    4.8040    0.6996    0.0000 C   0  0  0  0  0  0  0  0  0  0
    4.8040    2.0988    0.0000 C   0  0  0  0  0  0  0  0  0  0
    6.0166   -0.0000    0.0000 C   0  0  0  0  0  0  0  0  0  0
    7.2293    0.6996    0.0000 C   0  0  0  0  0  0  0  0  0  0
    7.2293    2.0988    0.0000 C   0  0  0  0  0  0  0  0  0  0
    6.0166    2.7984    0.0000 C   0  0  0  0  0  0  0  0  0  0
    8.4420    2.7984    0.0000 N   0  3  0  0  0  0  0  0  0  0
    9.6546    2.0988    0.0000 O   0  5  0  0  0  0  0  0  0  0
    8.4420    4.1977    0.0000 O   0  0  0  0  0  0  0  0  0  0
  1  2  4  0  0  0  0
  2  3  4  0  0  0  0
  3  4  4  0  0  0  0
  4  5  4  0  0  0  0
  5  6  4  0  0  0  0
  1  6  4  0  0  0  0
  4  7  4  0  0  0  0
  7  8  4  0  0  0  0
  8  9  4  0  0  0  0
  5  9  4  0  0  0  0
  8 10  4  0  0  0  0
 10 11  4  0  0  0  0
 11 12  4  0  0  0  0
 12 13  4  0  0  0  0
  9 13  4  0  0  0  0
 12 14  1  0  0  0  0
 14 15  1  0  0  0  0
 14 16  2  0  0  0  0
M  END
>  <Compound Name> (188)
3-nitrocarbazole

>  <Formula> (188)
C12H7N2O2

>  <LogP> (188)
3.51

>  <LUMO> (188)
-0.872

>  <MOL_ID> (188)
188

>  <Activity> (188)
-0.7

$$$$
1,3,6,8-tetranitronaphthalene
csChmFindW1207992328
[comments]
 22 23  0     0  0  0  0  0  0  1 V2000
    4.8066    3.5000    0.0000 C   0  0  0  0  0  0  0  0  0  0
    4.8066    2.1000    0.0000 C   0  0  0  0  0  0  0  0  0  0
    6.0200    1.4000    0.0000 C   0  0  0  0  0  0  0  0  0  0
    7.2333    2.1000    0.0000 C   0  0  0  0  0  0  0  0  0  0
    7.2333    3.5000    0.0000 C   0  0  0  0  0  0  0  0  0  0
    6.0200    4.2000    0.0000 C   0  0  0  0  0  0  0  0  0  0
    3.5933    4.2000    0.0000 C   0  0  0  0  0  0  0  0  0  0
    2.3800    3.5000    0.0000 C   0  0  0  0  0  0  0  0  0  0
    2.3800    2.1000    0.0000 C   0  0  0  0  0  0  0  0  0  0
    3.5933    1.4000    0.0000 C   0  0  0  0  0  0  0  0  0  0
    6.0200    5.6000    0.0000 N   0  3  0  0  0  0  0  0  0  0
    6.7200    6.3000    0.0000 O   0  5  0  0  0  0  0  0  0  0
    5.2266    6.3000    0.0000 O   0  0  0  0  0  0  0  0  0  0
    8.4466    1.4000    0.0000 N   0  3  0  0  0  0  0  0  0  0
    8.4466   -0.0000    0.0000 O   0  5  0  0  0  0  0  0  0  0
    9.6600    2.1000    0.0000 O   0  0  0  0  0  0  0  0  0  0
    1.1667    1.4000    0.0000 N   0  3  0  0  0  0  0  0  0  0
   -0.0000    2.1000    0.0000 O   0  5  0  0  0  0  0  0  0  0
    1.1667   -0.0000    0.0000 O   0  0  0  0  0  0  0  0  0  0
    3.5933    5.6000    0.0000 N   0  3  0  0  0  0  0  0  0  0
    4.2467    6.3000    0.0000 O   0  5  0  0  0  0  0  0  0  0
    2.7067    6.3000    0.0000 O   0  0  0  0  0  0  0  0  0  0
  1  2  4  0  0  0  0
  2  3  4  0  0  0  0
  3  4  4  0  0  0  0
  4  5  4  0  0  0  0
  5  6  4  0  0  0  0
  1  6  4  0  0  0  0
  1  7  4  0  0  0  0
  7  8  4  0  0  0  0
  8  9  4  0  0  0  0
  9 10  4  0  0  0  0
  2 10  4  0  0  0  0
  6 11  1  0  0  0  0
 11 12  1  0  0  0  0
 11 13  2  0  0  0  0
  4 14  1  0  0  0  0
 14 15  1  0  0  0  0
 14 16  2  0  0  0  0
  9 17  1  0  0  0  0
 17 18  1  0  0  0  0
 17 19  2  0  0  0  0
  7 20  1  0  0  0  0
 20 21  1  0  0  0  0
 20 22  2  0  0  0  0
M  END
>  <Compound Name> (189)
1,3,6,8-tetranitronaphthalene

>  <Formula> (189)
C10H4N4O8

>  <LogP> (189)
2.29

>  <LUMO> (189)
-3.025

>  <MOL_ID> (189)
189

>  <Activity> (189)
-0.7

$$$$
5-nitroindole
csChmFindW1207992328
[comments]
 12 13  0     0  0  0  0  0  0  1 V2000
    2.3787    2.0988    0.0000 C   0  0  0  0  0  0  0  0  0  0
    2.3787    0.6996    0.0000 C   0  0  0  0  0  0  0  0  0  0
    3.5913    0.0000    0.0000 C   0  0  0  0  0  0  0  0  0  0
    4.8040    0.6996    0.0000 C   0  0  0  0  0  0  0  0  0  0
    4.8040    2.0988    0.0000 C   0  0  0  0  0  0  0  0  0  0
    3.5913    2.7984    0.0000 C   0  0  0  0  0  0  0  0  0  0
    6.1566    0.2798    0.0000 N   0  0  0  1  0  0  0  0  0  0
    6.9495    1.3992    0.0000 C   0  0  0  0  0  0  0  0  0  0
    6.1566    2.5186    0.0000 C   0  0  0  0  0  0  0  0  0  0
    1.1660    2.7984    0.0000 N   0  3  0  0  0  0  0  0  0  0
    1.1660    4.1977    0.0000 O   0  5  0  0  0  0  0  0  0  0
   -0.0000    2.0988    0.0000 O   0  0  0  0  0  0  0  0  0  0
  1  2  4  0  0  0  0
  2  3  4  0  0  0  0
  3  4  4  0  0  0  0
  4  5  4  0  0  0  0
  5  6  4  0  0  0  0
  1  6  4  0  0  0  0
  4  7  4  0  0  0  0
  7  8  4  0  0  0  0
  8  9  4  0  0  0  0
  5  9  4  0  0  0  0
  1 10  1  0  0  0  0
 10 11  1  0  0  0  0
 10 12  2  0  0  0  0
M  END
>  <Compound Name> (190)
5-nitroindole

>  <Formula> (190)
C8H5N2O2

>  <LogP> (190)
2.13

>  <LUMO> (190)
-0.798

>  <MOL_ID> (190)
190

>  <Activity> (190)
0.57

$$$$
4-nitrocyclopenta[cd]pyrene
csChmFindW1207992328
[comments]
 21 25  0     0  0  0  0  0  0  1 V2000
   -0.0000    4.0578    0.0000 C   0  0  0  0  0  0  0  0  0  0
   -0.0000    2.6585    0.0000 C   0  0  0  0  0  0  0  0  0  0
    1.1660    1.9589    0.0000 C   0  0  0  0  0  0  0  0  0  0
    2.3787    2.6585    0.0000 C   0  0  0  0  0  0  0  0  0  0
    2.3787    4.0578    0.0000 C   0  0  0  0  0  0  0  0  0  0
    1.1660    4.7574    0.0000 C   0  0  0  0  0  0  0  0  0  0
    3.5914    4.7574    0.0000 C   0  0  0  0  0  0  0  0  0  0
    3.5914    6.1566    0.0000 C   0  0  0  0  0  0  0  0  0  0
    2.3787    6.8562    0.0000 C   0  0  0  0  0  0  0  0  0  0
    1.1660    6.1566    0.0000 C   0  0  0  0  0  0  0  0  0  0
    4.8040    4.0578    0.0000 C   0  0  0  0  0  0  0  0  0  0
    6.0167    4.7574    0.0000 C   0  0  0  0  0  0  0  0  0  0
    6.0167    6.1566    0.0000 C   0  0  0  0  0  0  0  0  0  0
    4.8040    6.8562    0.0000 C   0  0  0  0  0  0  0  0  0  0
    3.5914    1.9589    0.0000 C   0  0  0  0  0  0  0  0  0  0
    4.8040    2.6585    0.0000 C   0  0  0  0  0  0  0  0  0  0
    6.1100    2.3321    0.0000 C   0  0  0  0  0  0  0  0  0  0
    6.9495    3.9645    0.0000 C   0  0  0  0  0  0  0  0  0  0
    6.4831    0.9795    0.0000 N   0  3  0  0  0  0  0  0  0  0
    5.5037    0.0000    0.0000 O   0  5  0  0  0  0  0  0  0  0
    7.8357    0.6063    0.0000 O   0  0  0  0  0  0  0  0  0  0
  1  2  4  0  0  0  0
  2  3  4  0  0  0  0
  3  4  4  0  0  0  0
  4  5  4  0  0  0  0
  5  6  4  0  0  0  0
  1  6  4  0  0  0  0
  5  7  4  0  0  0  0
  7  8  4  0  0  0  0
  8  9  4  0  0  0  0
  9 10  4  0  0  0  0
  6 10  4  0  0  0  0
  7 11  4  0  0  0  0
 11 12  4  0  0  0  0
 12 13  4  0  0  0  0
 13 14  4  0  0  0  0
  8 14  4  0  0  0  0
  4 15  4  0  0  0  0
 15 16  4  0  0  0  0
 11 16  4  0  0  0  0
 16 17  1  0  0  0  0
 12 18  1  0  0  0  0
 17 18  2  0  0  0  0
 17 19  1  0  0  0  0
 19 20  1  0  0  0  0
 19 21  2  0  0  0  0
M  END
>  <Compound Name> (191)
4-nitrocyclopenta[cd]pyrene

>  <Formula> (191)
C18H9NO2

>  <LogP> (191)
4.35

>  <LUMO> (191)
-2.138

>  <MOL_ID> (191)
191

>  <Activity> (191)
0.77

$$$$
5-nitrochrysene
csChmFindW1207992328
[comments]
 21 24  0     0  0  0  0  0  0  1 V2000
    2.3787    3.4981    0.0000 C   0  0  0  0  0  0  0  0  0  0
    2.3787    2.0988    0.0000 C   0  0  0  0  0  0  0  0  0  0
    3.5913    1.3992    0.0000 C   0  0  0  0  0  0  0  0  0  0
    4.8040    2.0988    0.0000 C   0  0  0  0  0  0  0  0  0  0
    4.8040    3.4981    0.0000 C   0  0  0  0  0  0  0  0  0  0
    3.5913    4.1977    0.0000 C   0  0  0  0  0  0  0  0  0  0
    1.1660    4.1977    0.0000 C   0  0  0  0  0  0  0  0  0  0
   -0.0000    3.4981    0.0000 C   0  0  0  0  0  0  0  0  0  0
   -0.0000    2.0988    0.0000 C   0  0  0  0  0  0  0  0  0  0
    1.1660    1.3992    0.0000 C   0  0  0  0  0  0  0  0  0  0
    6.0167    4.1977    0.0000 C   0  0  0  0  0  0  0  0  0  0
    6.0167    5.5969    0.0000 C   0  0  0  0  0  0  0  0  0  0
    4.8040    6.2965    0.0000 C   0  0  0  0  0  0  0  0  0  0
    3.5913    5.5969    0.0000 C   0  0  0  0  0  0  0  0  0  0
    7.2293    3.4981    0.0000 C   0  0  0  0  0  0  0  0  0  0
    8.4420    4.1977    0.0000 C   0  0  0  0  0  0  0  0  0  0
    8.4420    5.5969    0.0000 C   0  0  0  0  0  0  0  0  0  0
    7.2293    6.2965    0.0000 C   0  0  0  0  0  0  0  0  0  0
    6.0167    1.3992    0.0000 N   0  3  0  0  0  0  0  0  0  0
    6.0167   -0.0000    0.0000 O   0  5  0  0  0  0  0  0  0  0
    7.2293    2.0988    0.0000 O   0  0  0  0  0  0  0  0  0  0
  1  2  4  0  0  0  0
  2  3  4  0  0  0  0
  3  4  4  0  0  0  0
  4  5  4  0  0  0  0
  5  6  4  0  0  0  0
  1  6  4  0  0  0  0
  1  7  4  0  0  0  0
  7  8  4  0  0  0  0
  8  9  4  0  0  0  0
  9 10  4  0  0  0  0
  2 10  4  0  0  0  0
  5 11  4  0  0  0  0
 11 12  4  0  0  0  0
 12 13  4  0  0  0  0
 13 14  4  0  0  0  0
  6 14  4  0  0  0  0
 11 15  4  0  0  0  0
 15 16  4  0  0  0  0
 16 17  4  0  0  0  0
 17 18  4  0  0  0  0
 12 18  4  0  0  0  0
  4 19  1  0  0  0  0
 19 20  1  0  0  0  0
 19 21  2  0  0  0  0
M  END
>  <Compound Name> (192)
5-nitrochrysene

>  <Formula> (192)
C18H11NO2

>  <LogP> (192)
5.41

>  <LUMO> (192)
-1.429

>  <MOL_ID> (192)
192

>  <Activity> (192)
-0.22

$$$$
2-nitrochrysene
csChmFindW1207992328
[comments]
 21 24  0     0  0  0  0  0  0  1 V2000
    2.3800    2.1000    0.0000 C   0  0  0  0  0  0  0  0  0  0
    2.3800    0.7000    0.0000 C   0  0  0  0  0  0  0  0  0  0
    3.5467   -0.0000    0.0000 C   0  0  0  0  0  0  0  0  0  0
    4.8067    0.7000    0.0000 C   0  0  0  0  0  0  0  0  0  0
    4.8067    2.1000    0.0000 C   0  0  0  0  0  0  0  0  0  0
    3.5467    2.8000    0.0000 C   0  0  0  0  0  0  0  0  0  0
    1.1667    2.8000    0.0000 C   0  0  0  0  0  0  0  0  0  0
   -0.0000    2.1000    0.0000 C   0  0  0  0  0  0  0  0  0  0
   -0.0000    0.7000    0.0000 C   0  0  0  0  0  0  0  0  0  0
    1.1667   -0.0000    0.0000 C   0  0  0  0  0  0  0  0  0  0
    6.0200    2.8000    0.0000 C   0  0  0  0  0  0  0  0  0  0
    6.0200    4.2000    0.0000 C   0  0  0  0  0  0  0  0  0  0
    4.8067    4.8533    0.0000 C   0  0  0  0  0  0  0  0  0  0
    3.5467    4.2000    0.0000 C   0  0  0  0  0  0  0  0  0  0
    7.1867    2.1000    0.0000 C   0  0  0  0  0  0  0  0  0  0
    8.4467    2.8000    0.0000 C   0  0  0  0  0  0  0  0  0  0
    8.4467    4.2000    0.0000 C   0  0  0  0  0  0  0  0  0  0
    7.1867    4.8533    0.0000 C   0  0  0  0  0  0  0  0  0  0
    9.6600    4.9467    0.0000 N   0  3  0  0  0  0  0  0  0  0
   10.8267    4.2000    0.0000 O   0  5  0  0  0  0  0  0  0  0
    9.6600    6.3467    0.0000 O   0  0  0  0  0  0  0  0  0  0
  1  2  4  0  0  0  0
  2  3  4  0  0  0  0
  3  4  4  0  0  0  0
  4  5  4  0  0  0  0
  5  6  4  0  0  0  0
  1  6  4  0  0  0  0
  1  7  4  0  0  0  0
  7  8  4  0  0  0  0
  8  9  4  0  0  0  0
  9 10  4  0  0  0  0
  2 10  4  0  0  0  0
  5 11  4  0  0  0  0
 11 12  4  0  0  0  0
 12 13  4  0  0  0  0
 13 14  4  0  0  0  0
  6 14  4  0  0  0  0
 11 15  4  0  0  0  0
 15 16  4  0  0  0  0
 16 17  4  0  0  0  0
 17 18  4  0  0  0  0
 12 18  4  0  0  0  0
 17 19  1  0  0  0  0
 19 20  1  0  0  0  0
 19 21  2  0  0  0  0
M  END
>  <Compound Name> (193)
2-nitrochrysene

>  <Formula> (193)
C18H11NO2

>  <LogP> (193)
5.41

>  <LUMO> (193)
-1.478

>  <MOL_ID> (193)
193

>  <Activity> (193)
-0.22

$$$$
4-nitro-o-phenylenediamine
csChmFindW1207992328
[comments]
 11 11  0     0  0  0  0  0  0  1 V2000
    4.1533    2.4267    0.0000 C   0  0  0  0  0  0  0  0  0  0
    2.7533    2.4267    0.0000 C   0  0  0  0  0  0  0  0  0  0
    2.0533    1.2133    0.0000 C   0  0  0  0  0  0  0  0  0  0
    2.7533    0.0000    0.0000 C   0  0  0  0  0  0  0  0  0  0
    4.1533    0.0000    0.0000 C   0  0  0  0  0  0  0  0  0  0
    4.8533    1.2133    0.0000 C   0  0  0  0  0  0  0  0  0  0
    4.8533    3.6400    0.0000 N   0  0  0  2  0  0  0  0  0  0
    6.2533    1.2133    0.0000 N   0  0  0  2  0  0  0  0  0  0
    0.6533    1.2133    0.0000 N   0  3  0  0  0  0  0  0  0  0
   -0.0000    2.4267    0.0000 O   0  5  0  0  0  0  0  0  0  0
   -0.0000    0.0000    0.0000 O   0  0  0  0  0  0  0  0  0  0
  1  2  4  0  0  0  0
  2  3  4  0  0  0  0
  3  4  4  0  0  0  0
  4  5  4  0  0  0  0
  5  6  4  0  0  0  0
  1  6  4  0  0  0  0
  1  7  1  0  0  0  0
  6  8  1  0  0  0  0
  3  9  1  0  0  0  0
  9 10  1  0  0  0  0
  9 11  2  0  0  0  0
M  END
>  <Compound Name> (194)
4-nitro-o-phenylenediamine

>  <Formula> (194)
C6H7N3O2

>  <LogP> (194)
0.88

>  <LUMO> (194)
-0.857

>  <MOL_ID> (194)
194

>  <Activity> (194)
0.63

$$$$
1,2,3-trichloro-4-nitrobenzene
csChmFindW1207992328
[comments]
 12 12  0     0  0  0  0  0  0  1 V2000
    1.3526    1.2127    0.0000 C   0  0  0  0  0  0  0  0  0  0
    2.0522    0.0000    0.0000 C   0  0  0  0  0  0  0  0  0  0
    3.4514    0.0000    0.0000 C   0  0  0  0  0  0  0  0  0  0
    4.1510    1.2127    0.0000 C   0  0  0  0  0  0  0  0  0  0
    3.4514    2.4253    0.0000 C   0  0  0  0  0  0  0  0  0  0
    2.0522    2.4253    0.0000 C   0  0  0  0  0  0  0  0  0  0
   -0.0000    1.2127    0.0000 Cl  0  0  0  0  0  0  0  0  0  0
    1.3526    3.6380    0.0000 Cl  0  0  0  0  0  0  0  0  0  0
    4.1510    3.6380    0.0000 Cl  0  0  0  0  0  0  0  0  0  0
    5.5502    1.2127    0.0000 N   0  3  0  0  0  0  0  0  0  0
    6.2498    0.0000    0.0000 O   0  5  0  0  0  0  0  0  0  0
    6.2498    2.4253    0.0000 O   0  0  0  0  0  0  0  0  0  0
  1  2  4  0  0  0  0
  2  3  4  0  0  0  0
  3  4  4  0  0  0  0
  4  5  4  0  0  0  0
  5  6  4  0  0  0  0
  1  6  4  0  0  0  0
  1  7  1  0  0  0  0
  6  8  1  0  0  0  0
  5  9  1  0  0  0  0
  4 10  1  0  0  0  0
 10 11  1  0  0  0  0
 10 12  2  0  0  0  0
M  END
>  <Compound Name> (195)
1,2,3-trichloro-4-nitrobenzene

>  <Formula> (195)
C6H2Cl3NO2

>  <LogP> (195)
3.61

>  <LUMO> (195)
-1.465

>  <MOL_ID> (195)
195

>  <Activity> (195)
-2.94

$$$$
4-nitrocarbazole
csChmFindW1207992328
[comments]
 16 18  0     0  0  0  0  0  0  1 V2000
   -0.0000    2.0988    0.0000 C   0  0  0  0  0  0  0  0  0  0
   -0.0000    0.6996    0.0000 C   0  0  0  0  0  0  0  0  0  0
    1.1660    0.0000    0.0000 C   0  0  0  0  0  0  0  0  0  0
    2.3787    0.6996    0.0000 C   0  0  0  0  0  0  0  0  0  0
    2.3787    2.0988    0.0000 C   0  0  0  0  0  0  0  0  0  0
    1.1660    2.7985    0.0000 C   0  0  0  0  0  0  0  0  0  0
    3.5914    0.0000    0.0000 N   0  0  0  1  0  0  0  0  0  0
    4.8040    0.6996    0.0000 C   0  0  0  0  0  0  0  0  0  0
    4.8040    2.0988    0.0000 C   0  0  0  0  0  0  0  0  0  0
    6.0167    0.0000    0.0000 C   0  0  0  0  0  0  0  0  0  0
    7.2294    0.6996    0.0000 C   0  0  0  0  0  0  0  0  0  0
    7.2294    2.0988    0.0000 C   0  0  0  0  0  0  0  0  0  0
    6.0167    2.7985    0.0000 C   0  0  0  0  0  0  0  0  0  0
    6.0167    4.1977    0.0000 N   0  3  0  0  0  0  0  0  0  0
    7.2294    4.8507    0.0000 O   0  5  0  0  0  0  0  0  0  0
    4.8040    4.8507    0.0000 O   0  0  0  0  0  0  0  0  0  0
  1  2  4  0  0  0  0
  2  3  4  0  0  0  0
  3  4  4  0  0  0  0
  4  5  4  0  0  0  0
  5  6  4  0  0  0  0
  1  6  4  0  0  0  0
  4  7  4  0  0  0  0
  7  8  4  0  0  0  0
  8  9  4  0  0  0  0
  5  9  4  0  0  0  0
  8 10  4  0  0  0  0
 10 11  4  0  0  0  0
 11 12  4  0  0  0  0
 12 13  4  0  0  0  0
  9 13  4  0  0  0  0
 13 14  1  0  0  0  0
 14 15  1  0  0  0  0
 14 16  2  0  0  0  0
M  END
>  <Compound Name> (196)
4-nitrocarbazole

>  <Formula> (196)
C12H7N2O2

>  <LogP> (196)
3.51

>  <LUMO> (196)
-1.092

>  <MOL_ID> (196)
196

>  <Activity> (196)
-2

$$$$
1-methyl-2-nitrobenzimidazole
csChmFindW1207992328
[comments]
 13 14  0     0  0  0  0  0  0  1 V2000
   -0.0000    3.1733    0.0000 C   0  0  0  0  0  0  0  0  0  0
   -0.0000    1.7733    0.0000 C   0  0  0  0  0  0  0  0  0  0
    1.1667    1.0733    0.0000 C   0  0  0  0  0  0  0  0  0  0
    2.3800    1.7733    0.0000 C   0  0  0  0  0  0  0  0  0  0
    2.3800    3.1733    0.0000 C   0  0  0  0  0  0  0  0  0  0
    1.1667    3.8733    0.0000 C   0  0  0  0  0  0  0  0  0  0
    3.7333    1.3533    0.0000 N   0  0  0  0  0  0  0  0  0  0
    4.5266    2.4733    0.0000 C   0  0  0  0  0  0  0  0  0  0
    3.7333    3.5933    0.0000 N   0  0  0  0  0  0  0  0  0  0
    4.0600   -0.0000    0.0000 C   0  0  0  0  0  0  0  0  0  0
    5.9266    2.4733    0.0000 N   0  3  0  0  0  0  0  0  0  0
    6.6266    1.2600    0.0000 O   0  5  0  0  0  0  0  0  0  0
    6.6266    3.6866    0.0000 O   0  0  0  0  0  0  0  0  0  0
  1  2  4  0  0  0  0
  2  3  4  0  0  0  0
  3  4  4  0  0  0  0
  4  5  4  0  0  0  0
  5  6  4  0  0  0  0
  1  6  4  0  0  0  0
  4  7  4  0  0  0  0
  7  8  4  0  0  0  0
  8  9  4  0  0  0  0
  5  9  4  0  0  0  0
  7 10  1  0  0  0  0
  8 11  1  0  0  0  0
 11 12  1  0  0  0  0
 11 13  2  0  0  0  0
M  END
>  <Compound Name> (197)
1-methyl-2-nitrobenzimidazole

>  <Formula> (197)
C8H8N3O2

>  <LogP> (197)
1.58

>  <LUMO> (197)
-1.293

>  <MOL_ID> (197)
197

>  <Activity> (197)
2.54

$$$$
6-nitrobenzo[a]pyrene
csChmFindW1207992328
[comments]
 23 27  0     0  0  0  0  0  0  1 V2000
    2.3800    4.2000    0.0000 C   0  0  0  0  0  0  0  0  0  0
    2.3800    2.8000    0.0000 C   0  0  0  0  0  0  0  0  0  0
    3.5933    2.1000    0.0000 C   0  0  0  0  0  0  0  0  0  0
    4.8066    2.8000    0.0000 C   0  0  0  0  0  0  0  0  0  0
    4.8066    4.2000    0.0000 C   0  0  0  0  0  0  0  0  0  0
    3.5933    4.9000    0.0000 C   0  0  0  0  0  0  0  0  0  0
    6.0200    4.9000    0.0000 C   0  0  0  0  0  0  0  0  0  0
    6.0200    6.3000    0.0000 C   0  0  0  0  0  0  0  0  0  0
    4.8066    6.9533    0.0000 C   0  0  0  0  0  0  0  0  0  0
    3.5933    6.3000    0.0000 C   0  0  0  0  0  0  0  0  0  0
    7.2333    4.2000    0.0000 C   0  0  0  0  0  0  0  0  0  0
    8.4466    4.9000    0.0000 C   0  0  0  0  0  0  0  0  0  0
    8.4466    6.3000    0.0000 C   0  0  0  0  0  0  0  0  0  0
    7.2333    6.9533    0.0000 C   0  0  0  0  0  0  0  0  0  0
    6.0200    2.1000    0.0000 C   0  0  0  0  0  0  0  0  0  0
    7.2333    2.8000    0.0000 C   0  0  0  0  0  0  0  0  0  0
    1.1667    4.9000    0.0000 C   0  0  0  0  0  0  0  0  0  0
   -0.0000    4.2000    0.0000 C   0  0  0  0  0  0  0  0  0  0
   -0.0000    2.8000    0.0000 C   0  0  0  0  0  0  0  0  0  0
    1.1667    2.1000    0.0000 C   0  0  0  0  0  0  0  0  0  0
    3.5933    0.7000    0.0000 N   0  3  0  0  0  0  0  0  0  0
    2.3800   -0.0000    0.0000 O   0  5  0  0  0  0  0  0  0  0
    4.8066   -0.0000    0.0000 O   0  0  0  0  0  0  0  0  0  0
  1  2  4  0  0  0  0
  2  3  4  0  0  0  0
  3  4  4  0  0  0  0
  4  5  4  0  0  0  0
  5  6  4  0  0  0  0
  1  6  4  0  0  0  0
  5  7  4  0  0  0  0
  7  8  4  0  0  0  0
  8  9  4  0  0  0  0
  9 10  4  0  0  0  0
  6 10  4  0  0  0  0
  7 11  4  0  0  0  0
 11 12  4  0  0  0  0
 12 13  4  0  0  0  0
 13 14  4  0  0  0  0
  8 14  4  0  0  0  0
  4 15  4  0  0  0  0
 15 16  4  0  0  0  0
 11 16  4  0  0  0  0
  1 17  4  0  0  0  0
 17 18  4  0  0  0  0
 18 19  4  0  0  0  0
 19 20  4  0  0  0  0
  2 20  4  0  0  0  0
  3 21  1  0  0  0  0
 21 22  1  0  0  0  0
 21 23  2  0  0  0  0
M  END
>  <Compound Name> (198)
6-nitrobenzo[a]pyrene

>  <Formula> (198)
C20H11NO2

>  <LogP> (198)
5.87

>  <LUMO> (198)
-1.767

>  <MOL_ID> (198)
198

>  <Activity> (198)
1.64

$$$$
6-nitro-4,5-dihydrobenzo[a]pyrene
csChmFindW1207992328
[comments]
 23 27  0     0  0  0  0  0  0  1 V2000
    2.3800    4.2000    0.0000 C   0  0  0  0  0  0  0  0  0  0
    2.3800    2.8000    0.0000 C   0  0  0  0  0  0  0  0  0  0
    3.5467    2.1000    0.0000 C   0  0  0  0  0  0  0  0  0  0
    4.8067    2.8000    0.0000 C   0  0  0  0  0  0  0  0  0  0
    4.8067    4.2000    0.0000 C   0  0  0  0  0  0  0  0  0  0
    3.5467    4.9000    0.0000 C   0  0  0  0  0  0  0  0  0  0
    6.0200    4.9000    0.0000 C   0  0  0  0  0  0  0  0  0  0
    6.0200    6.3000    0.0000 C   0  0  0  0  0  0  0  0  0  0
    4.8067    6.9067    0.0000 C   0  0  0  0  0  0  0  0  0  0
    3.5467    6.3000    0.0000 C   0  0  0  0  0  0  0  0  0  0
    7.1867    4.2000    0.0000 C   0  0  0  0  0  0  0  0  0  0
    8.4467    4.9000    0.0000 C   0  0  0  0  0  0  0  0  0  0
    8.4467    6.3000    0.0000 C   0  0  0  0  0  0  0  0  0  0
    7.1867    6.9067    0.0000 C   0  0  0  0  0  0  0  0  0  0
    6.0200    2.1000    0.0000 C   0  0  0  0  0  0  0  0  0  0
    7.1867    2.8000    0.0000 C   0  0  0  0  0  0  0  0  0  0
    1.1667    4.9000    0.0000 C   0  0  0  0  0  0  0  0  0  0
    0.0000    4.2000    0.0000 C   0  0  0  0  0  0  0  0  0  0
    0.0000    2.8000    0.0000 C   0  0  0  0  0  0  0  0  0  0
    1.1667    2.1000    0.0000 C   0  0  0  0  0  0  0  0  0  0
    3.5467    0.7000    0.0000 N   0  3  0  0  0  0  0  0  0  0
    2.3800    0.0000    0.0000 O   0  5  0  0  0  0  0  0  0  0
    4.8067    0.0000    0.0000 O   0  0  0  0  0  0  0  0  0  0
  1  2  4  0  0  0  0
  2  3  4  0  0  0  0
  3  4  4  0  0  0  0
  4  5  4  0  0  0  0
  5  6  4  0  0  0  0
  1  6  4  0  0  0  0
  5  7  4  0  0  0  0
  7  8  4  0  0  0  0
  8  9  4  0  0  0  0
  9 10  4  0  0  0  0
  6 10  4  0  0  0  0
  7 11  4  0  0  0  0
 11 12  4  0  0  0  0
 12 13  4  0  0  0  0
 13 14  4  0  0  0  0
  8 14  4  0  0  0  0
  4 15  1  0  0  0  0
 15 16  1  0  0  0  0
 11 16  1  0  0  0  0
  1 17  4  0  0  0  0
 17 18  4  0  0  0  0
 18 19  4  0  0  0  0
 19 20  4  0  0  0  0
  2 20  4  0  0  0  0
  3 21  1  0  0  0  0
 21 22  1  0  0  0  0
 21 23  2  0  0  0  0
M  END
>  <Compound Name> (199)
6-nitro-4,5-dihydrobenzo[a]pyrene

>  <Formula> (199)
C20H13NO2

>  <LogP> (199)
6.16

>  <LUMO> (199)
-1.35

>  <MOL_ID> (199)
199

>  <Activity> (199)
0.3

$$$$
1-methyl-5-nitroindoline
csChmFindW1207992328
[comments]
 13 14  0     0  0  0  0  0  0  1 V2000
    2.3800    3.1733    0.0000 C   0  0  0  0  0  0  0  0  0  0
    2.3800    1.7733    0.0000 C   0  0  0  0  0  0  0  0  0  0
    3.5933    1.0733    0.0000 C   0  0  0  0  0  0  0  0  0  0
    4.8067    1.7733    0.0000 C   0  0  0  0  0  0  0  0  0  0
    4.8067    3.1733    0.0000 C   0  0  0  0  0  0  0  0  0  0
    3.5933    3.8733    0.0000 C   0  0  0  0  0  0  0  0  0  0
    6.1133    1.3533    0.0000 N   0  0  0  0  0  0  0  0  0  0
    6.9533    2.4733    0.0000 C   0  0  0  0  0  0  0  0  0  0
    6.1133    3.5933    0.0000 C   0  0  0  0  0  0  0  0  0  0
    6.4867    0.0000    0.0000 C   0  0  0  0  0  0  0  0  0  0
    1.1667    3.8733    0.0000 N   0  3  0  0  0  0  0  0  0  0
    1.1667    5.2733    0.0000 O   0  5  0  0  0  0  0  0  0  0
   -0.0000    3.1733    0.0000 O   0  0  0  0  0  0  0  0  0  0
  1  2  4  0  0  0  0
  2  3  4  0  0  0  0
  3  4  4  0  0  0  0
  4  5  4  0  0  0  0
  5  6  4  0  0  0  0
  1  6  4  0  0  0  0
  4  7  1  0  0  0  0
  7  8  1  0  0  0  0
  8  9  1  0  0  0  0
  5  9  1  0  0  0  0
  7 10  1  0  0  0  0
  1 11  1  0  0  0  0
 11 12  1  0  0  0  0
 11 13  2  0  0  0  0
M  END
>  <Compound Name> (200)
1-methyl-5-nitroindoline

>  <Formula> (200)
C9H10N2O2

>  <LogP> (200)
2.86

>  <LUMO> (200)
-0.56

>  <MOL_ID> (200)
200

>  <Activity> (200)
-99

$$$$
1-methyl-5-nitroindole
csChmFindW1207992328
[comments]
 13 14  0     0  0  0  0  0  0  1 V2000
    2.3800    3.1733    0.0000 C   0  0  0  0  0  0  0  0  0  0
    2.3800    1.7733    0.0000 C   0  0  0  0  0  0  0  0  0  0
    3.5933    1.0733    0.0000 C   0  0  0  0  0  0  0  0  0  0
    4.8067    1.7733    0.0000 C   0  0  0  0  0  0  0  0  0  0
    4.8067    3.1733    0.0000 C   0  0  0  0  0  0  0  0  0  0
    3.5933    3.8733    0.0000 C   0  0  0  0  0  0  0  0  0  0
    6.1133    1.3533    0.0000 N   0  0  0  0  0  0  0  0  0  0
    6.9533    2.4733    0.0000 C   0  0  0  0  0  0  0  0  0  0
    6.1133    3.5933    0.0000 C   0  0  0  0  0  0  0  0  0  0
    6.4867    0.0000    0.0000 C   0  0  0  0  0  0  0  0  0  0
    1.1667    3.8733    0.0000 N   0  3  0  0  0  0  0  0  0  0
    1.1667    5.2733    0.0000 O   0  5  0  0  0  0  0  0  0  0
   -0.0000    3.1733    0.0000 O   0  0  0  0  0  0  0  0  0  0
  1  2  4  0  0  0  0
  2  3  4  0  0  0  0
  3  4  4  0  0  0  0
  4  5  4  0  0  0  0
  5  6  4  0  0  0  0
  1  6  4  0  0  0  0
  4  7  4  0  0  0  0
  7  8  4  0  0  0  0
  8  9  4  0  0  0  0
  5  9  4  0  0  0  0
  7 10  1  0  0  0  0
  1 11  1  0  0  0  0
 11 12  1  0  0  0  0
 11 13  2  0  0  0  0
M  END
>  <Compound Name> (201)
1-methyl-5-nitroindole

>  <Formula> (201)
C9H9N2O2

>  <LogP> (201)
2.5

>  <LUMO> (201)
-0.746

>  <MOL_ID> (201)
201

>  <Activity> (201)
-99

$$$$
nitrobenzene
csChmFindW1207992328
[comments]
  9  9  0     0  0  0  0  0  0  1 V2000
   -0.0000    1.2133    0.0000 C   0  0  0  0  0  0  0  0  0  0
    0.6533   -0.0000    0.0000 C   0  0  0  0  0  0  0  0  0  0
    2.0533   -0.0000    0.0000 C   0  0  0  0  0  0  0  0  0  0
    2.7533    1.2133    0.0000 C   0  0  0  0  0  0  0  0  0  0
    2.0533    2.3800    0.0000 C   0  0  0  0  0  0  0  0  0  0
    0.6533    2.3800    0.0000 C   0  0  0  0  0  0  0  0  0  0
    4.1533    1.2133    0.0000 N   0  3  0  0  0  0  0  0  0  0
    4.8533   -0.0000    0.0000 O   0  5  0  0  0  0  0  0  0  0
    4.8533    2.3800    0.0000 O   0  0  0  0  0  0  0  0  0  0
  1  2  4  0  0  0  0
  2  3  4  0  0  0  0
  3  4  4  0  0  0  0
  4  5  4  0  0  0  0
  5  6  4  0  0  0  0
  1  6  4  0  0  0  0
  4  7  1  0  0  0  0
  7  8  1  0  0  0  0
  7  9  2  0  0  0  0
M  END
>  <Compound Name> (202)
nitrobenzene

>  <Formula> (202)
C6H5NO2

>  <LogP> (202)
1.85

>  <LUMO> (202)
-1.089

>  <MOL_ID> (202)
202

>  <Activity> (202)
-99

$$$$
1-methyl-7-nitroindole
csChmFindW1207992328
[comments]
 13 14  0     0  0  0  0  0  0  1 V2000
   -0.0000    4.2000    0.0000 C   0  0  0  0  0  0  0  0  0  0
   -0.0000    2.8000    0.0000 C   0  0  0  0  0  0  0  0  0  0
    1.1667    2.1000    0.0000 C   0  0  0  0  0  0  0  0  0  0
    2.3800    2.8000    0.0000 C   0  0  0  0  0  0  0  0  0  0
    2.3800    4.2000    0.0000 C   0  0  0  0  0  0  0  0  0  0
    1.1667    4.8533    0.0000 C   0  0  0  0  0  0  0  0  0  0
    3.6867    2.3800    0.0000 N   0  0  0  0  0  0  0  0  0  0
    4.5267    3.5000    0.0000 C   0  0  0  0  0  0  0  0  0  0
    3.6867    4.6200    0.0000 C   0  0  0  0  0  0  0  0  0  0
    4.0600    1.0267    0.0000 C   0  0  0  0  0  0  0  0  0  0
    1.1667    0.7000    0.0000 N   0  3  0  0  0  0  0  0  0  0
   -0.0000   -0.0000    0.0000 O   0  5  0  0  0  0  0  0  0  0
    2.3800   -0.0000    0.0000 O   0  0  0  0  0  0  0  0  0  0
  1  2  4  0  0  0  0
  2  3  4  0  0  0  0
  3  4  4  0  0  0  0
  4  5  4  0  0  0  0
  5  6  4  0  0  0  0
  1  6  4  0  0  0  0
  4  7  4  0  0  0  0
  7  8  4  0  0  0  0
  8  9  4  0  0  0  0
  5  9  4  0  0  0  0
  7 10  1  0  0  0  0
  3 11  1  0  0  0  0
 11 12  1  0  0  0  0
 11 13  2  0  0  0  0
M  END
>  <Compound Name> (203)
1-methyl-7-nitroindole

>  <Formula> (203)
C9H9N2O2

>  <LogP> (203)
2.5

>  <LUMO> (203)
-0.868

>  <MOL_ID> (203)
203

>  <Activity> (203)
-99

$$$$
4-nitroindole
csChmFindW1207992328
[comments]
 12 13  0     0  0  0  0  0  0  1 V2000
    0.0000    2.1000    0.0000 C   0  0  0  0  0  0  0  0  0  0
    0.0000    0.7000    0.0000 C   0  0  0  0  0  0  0  0  0  0
    1.1667   -0.0000    0.0000 C   0  0  0  0  0  0  0  0  0  0
    2.4267    0.7000    0.0000 C   0  0  0  0  0  0  0  0  0  0
    2.4267    2.1000    0.0000 C   0  0  0  0  0  0  0  0  0  0
    1.1667    2.8000    0.0000 C   0  0  0  0  0  0  0  0  0  0
    3.6867    0.2800    0.0000 N   0  0  0  1  0  0  0  0  0  0
    4.5267    1.4000    0.0000 C   0  0  0  0  0  0  0  0  0  0
    3.6867    2.5200    0.0000 C   0  0  0  0  0  0  0  0  0  0
    1.1667    4.2000    0.0000 N   0  3  0  0  0  0  0  0  0  0
    2.4267    4.9467    0.0000 O   0  5  0  0  0  0  0  0  0  0
    0.0000    4.9467    0.0000 O   0  0  0  0  0  0  0  0  0  0
  1  2  4  0  0  0  0
  2  3  4  0  0  0  0
  3  4  4  0  0  0  0
  4  5  4  0  0  0  0
  5  6  4  0  0  0  0
  1  6  4  0  0  0  0
  4  7  4  0  0  0  0
  7  8  4  0  0  0  0
  8  9  4  0  0  0  0
  5  9  4  0  0  0  0
  6 10  1  0  0  0  0
 10 11  1  0  0  0  0
 10 12  2  0  0  0  0
M  END
>  <Compound Name> (204)
4-nitroindole

>  <Formula> (204)
C8H5N2O2

>  <LogP> (204)
2.13

>  <LUMO> (204)
-1.05

>  <MOL_ID> (204)
204

>  <Activity> (204)
-99

$$$$
5-nitroindazole
csChmFindW1207992328
[comments]
 12 13  0     0  0  0  0  0  0  1 V2000
    2.4267    2.1000    0.0000 C   0  0  0  0  0  0  0  0  0  0
    2.4267    0.7000    0.0000 C   0  0  0  0  0  0  0  0  0  0
    3.6400   -0.0000    0.0000 C   0  0  0  0  0  0  0  0  0  0
    4.8067    0.7000    0.0000 C   0  0  0  0  0  0  0  0  0  0
    4.8067    2.1000    0.0000 C   0  0  0  0  0  0  0  0  0  0
    3.6400    2.8000    0.0000 C   0  0  0  0  0  0  0  0  0  0
    6.1600    0.2800    0.0000 N   0  0  0  1  0  0  0  0  0  0
    7.0000    1.4000    0.0000 N   0  0  0  0  0  0  0  0  0  0
    6.1600    2.5200    0.0000 C   0  0  0  0  0  0  0  0  0  0
    1.1667    2.8000    0.0000 N   0  3  0  0  0  0  0  0  0  0
    1.1667    4.2000    0.0000 O   0  5  0  0  0  0  0  0  0  0
   -0.0000    2.1000    0.0000 O   0  0  0  0  0  0  0  0  0  0
  1  2  4  0  0  0  0
  2  3  4  0  0  0  0
  3  4  4  0  0  0  0
  4  5  4  0  0  0  0
  5  6  4  0  0  0  0
  1  6  4  0  0  0  0
  4  7  4  0  0  0  0
  7  8  4  0  0  0  0
  8  9  4  0  0  0  0
  5  9  4  0  0  0  0
  1 10  1  0  0  0  0
 10 11  1  0  0  0  0
 10 12  2  0  0  0  0
M  END
>  <Compound Name> (205)
5-nitroindazole

>  <Formula> (205)
C7H4N3O2

>  <LogP> (205)
2.03

>  <LUMO> (205)
-1.117

>  <MOL_ID> (205)
205

>  <Activity> (205)
-99

$$$$
2-fluoronitrobenzene
csChmFindW1207992328
[comments]
 10 10  0     0  0  0  0  0  0  1 V2000
    0.0000    1.2127    0.0000 C   0  0  0  0  0  0  0  0  0  0
    0.6530    0.0000    0.0000 C   0  0  0  0  0  0  0  0  0  0
    2.0522    0.0000    0.0000 C   0  0  0  0  0  0  0  0  0  0
    2.7518    1.2127    0.0000 C   0  0  0  0  0  0  0  0  0  0
    2.0522    2.4253    0.0000 C   0  0  0  0  0  0  0  0  0  0
    0.6530    2.4253    0.0000 C   0  0  0  0  0  0  0  0  0  0
    2.7518    3.6380    0.0000 F   0  0  0  0  0  0  0  0  0  0
    4.1510    1.2127    0.0000 N   0  3  0  0  0  0  0  0  0  0
    4.8506    0.0000    0.0000 O   0  5  0  0  0  0  0  0  0  0
    4.8506    2.4253    0.0000 O   0  0  0  0  0  0  0  0  0  0
  1  2  4  0  0  0  0
  2  3  4  0  0  0  0
  3  4  4  0  0  0  0
  4  5  4  0  0  0  0
  5  6  4  0  0  0  0
  1  6  4  0  0  0  0
  5  7  1  0  0  0  0
  4  8  1  0  0  0  0
  8  9  1  0  0  0  0
  8 10  2  0  0  0  0
M  END
>  <Compound Name> (206)
2-fluoronitrobenzene

>  <Formula> (206)
C6H4FNO2

>  <LogP> (206)
1.69

>  <LUMO> (206)
-1.321

>  <MOL_ID> (206)
206

>  <Activity> (206)
-99

$$$$
7-nitroindole
csChmFindW1207992328
[comments]
 12 13  0     0  0  0  0  0  0  1 V2000
    0.0000    4.2000    0.0000 C   0  0  0  0  0  0  0  0  0  0
    0.0000    2.8000    0.0000 C   0  0  0  0  0  0  0  0  0  0
    1.1667    2.1000    0.0000 C   0  0  0  0  0  0  0  0  0  0
    2.4267    2.8000    0.0000 C   0  0  0  0  0  0  0  0  0  0
    2.4267    4.2000    0.0000 C   0  0  0  0  0  0  0  0  0  0
    1.1667    4.9467    0.0000 C   0  0  0  0  0  0  0  0  0  0
    3.6867    2.3800    0.0000 N   0  0  0  1  0  0  0  0  0  0
    4.5267    3.5000    0.0000 C   0  0  0  0  0  0  0  0  0  0
    3.6867    4.6200    0.0000 C   0  0  0  0  0  0  0  0  0  0
    1.1667    0.7000    0.0000 N   0  3  0  0  0  0  0  0  0  0
    0.0000   -0.0000    0.0000 O   0  5  0  0  0  0  0  0  0  0
    2.4267   -0.0000    0.0000 O   0  0  0  0  0  0  0  0  0  0
  1  2  4  0  0  0  0
  2  3  4  0  0  0  0
  3  4  4  0  0  0  0
  4  5  4  0  0  0  0
  5  6  4  0  0  0  0
  1  6  4  0  0  0  0
  4  7  4  0  0  0  0
  7  8  4  0  0  0  0
  8  9  4  0  0  0  0
  5  9  4  0  0  0  0
  3 10  1  0  0  0  0
 10 11  1  0  0  0  0
 10 12  2  0  0  0  0
M  END
>  <Compound Name> (207)
7-nitroindole

>  <Formula> (207)
C8H5N2O2

>  <LogP> (207)
2.13

>  <LUMO> (207)
-1.125

>  <MOL_ID> (207)
207

>  <Activity> (207)
-99

$$$$
3-fluoronitrobenzene
csChmFindW1207992328
[comments]
 10 10  0     0  0  0  0  0  0  1 V2000
   -0.0000    1.2133    0.0000 C   0  0  0  0  0  0  0  0  0  0
    0.6533    0.0000    0.0000 C   0  0  0  0  0  0  0  0  0  0
    2.0533    0.0000    0.0000 C   0  0  0  0  0  0  0  0  0  0
    2.7533    1.2133    0.0000 C   0  0  0  0  0  0  0  0  0  0
    2.0533    2.4266    0.0000 C   0  0  0  0  0  0  0  0  0  0
    0.6533    2.4266    0.0000 C   0  0  0  0  0  0  0  0  0  0
   -0.0000    3.6400    0.0000 F   0  0  0  0  0  0  0  0  0  0
    4.1533    1.2133    0.0000 N   0  3  0  0  0  0  0  0  0  0
    4.8533    0.0000    0.0000 O   0  5  0  0  0  0  0  0  0  0
    4.8533    2.4266    0.0000 O   0  0  0  0  0  0  0  0  0  0
  1  2  4  0  0  0  0
  2  3  4  0  0  0  0
  3  4  4  0  0  0  0
  4  5  4  0  0  0  0
  5  6  4  0  0  0  0
  1  6  4  0  0  0  0
  6  7  1  0  0  0  0
  4  8  1  0  0  0  0
  8  9  1  0  0  0  0
  8 10  2  0  0  0  0
M  END
>  <Compound Name> (208)
3-fluoronitrobenzene

>  <Formula> (208)
C6H4FNO2

>  <LogP> (208)
1.9

>  <LUMO> (208)
-1.358

>  <MOL_ID> (208)
208

>  <Activity> (208)
-99

$$$$
1,2-dinitrobenzene
csChmFindW1207992328
[comments]
 12 12  0     0  0  0  0  0  0  1 V2000
    2.0533    2.4266    0.0000 C   0  0  0  0  0  0  0  0  0  0
    0.6533    2.4266    0.0000 C   0  0  0  0  0  0  0  0  0  0
   -0.0000    1.2133    0.0000 C   0  0  0  0  0  0  0  0  0  0
    0.6533   -0.0000    0.0000 C   0  0  0  0  0  0  0  0  0  0
    2.0533   -0.0000    0.0000 C   0  0  0  0  0  0  0  0  0  0
    2.7533    1.2133    0.0000 C   0  0  0  0  0  0  0  0  0  0
    4.1533    1.2133    0.0000 N   0  3  0  0  0  0  0  0  0  0
    4.8533   -0.0000    0.0000 O   0  5  0  0  0  0  0  0  0  0
    4.8533    2.4266    0.0000 O   0  0  0  0  0  0  0  0  0  0
    2.7533    3.6400    0.0000 N   0  3  0  0  0  0  0  0  0  0
    4.1533    3.6400    0.0000 O   0  5  0  0  0  0  0  0  0  0
    2.0533    4.8066    0.0000 O   0  0  0  0  0  0  0  0  0  0
  1  2  4  0  0  0  0
  2  3  4  0  0  0  0
  3  4  4  0  0  0  0
  4  5  4  0  0  0  0
  5  6  4  0  0  0  0
  1  6  4  0  0  0  0
  6  7  1  0  0  0  0
  7  8  1  0  0  0  0
  7  9  2  0  0  0  0
  1 10  1  0  0  0  0
 10 11  1  0  0  0  0
 10 12  2  0  0  0  0
M  END
>  <Compound Name> (209)
1,2-dinitrobenzene

>  <Formula> (209)
C6H4N2O4

>  <LogP> (209)
1.58

>  <LUMO> (209)
-1.834

>  <MOL_ID> (209)
209

>  <Activity> (209)
-99

$$$$
3-chloronitrobenzene
csChmFindW1207992328
[comments]
 10 10  0     0  0  0  0  0  0  1 V2000
   -0.0000    1.2133    0.0000 C   0  0  0  0  0  0  0  0  0  0
    0.6533    0.0000    0.0000 C   0  0  0  0  0  0  0  0  0  0
    2.0533    0.0000    0.0000 C   0  0  0  0  0  0  0  0  0  0
    2.7533    1.2133    0.0000 C   0  0  0  0  0  0  0  0  0  0
    2.0533    2.4266    0.0000 C   0  0  0  0  0  0  0  0  0  0
    0.6533    2.4266    0.0000 C   0  0  0  0  0  0  0  0  0  0
   -0.0000    3.6400    0.0000 Cl  0  0  0  0  0  0  0  0  0  0
    4.1533    1.2133    0.0000 N   0  3  0  0  0  0  0  0  0  0
    4.8533    0.0000    0.0000 O   0  5  0  0  0  0  0  0  0  0
    4.8533    2.4266    0.0000 O   0  0  0  0  0  0  0  0  0  0
  1  2  4  0  0  0  0
  2  3  4  0  0  0  0
  3  4  4  0  0  0  0
  4  5  4  0  0  0  0
  5  6  4  0  0  0  0
  1  6  4  0  0  0  0
  6  7  1  0  0  0  0
  4  8  1  0  0  0  0
  8  9  1  0  0  0  0
  8 10  2  0  0  0  0
M  END
>  <Compound Name> (210)
3-chloronitrobenzene

>  <Formula> (210)
C6H4ClNO2

>  <LogP> (210)
2.41

>  <LUMO> (210)
-1.306

>  <MOL_ID> (210)
210

>  <Activity> (210)
-99

$$$$
4-chloronitrobenzene
csChmFindW1207992328
[comments]
 10 10  0     0  0  0  0  0  0  1 V2000
    3.4533    2.3800    0.0000 C   0  0  0  0  0  0  0  0  0  0
    2.0533    2.3800    0.0000 C   0  0  0  0  0  0  0  0  0  0
    1.3533    1.2133    0.0000 C   0  0  0  0  0  0  0  0  0  0
    2.0533   -0.0000    0.0000 C   0  0  0  0  0  0  0  0  0  0
    3.4533   -0.0000    0.0000 C   0  0  0  0  0  0  0  0  0  0
    4.1533    1.2133    0.0000 C   0  0  0  0  0  0  0  0  0  0
    0.0000    1.2133    0.0000 Cl  0  0  0  0  0  0  0  0  0  0
    5.5533    1.2133    0.0000 N   0  3  0  0  0  0  0  0  0  0
    6.2533   -0.0000    0.0000 O   0  5  0  0  0  0  0  0  0  0
    6.2533    2.3800    0.0000 O   0  0  0  0  0  0  0  0  0  0
  1  2  4  0  0  0  0
  2  3  4  0  0  0  0
  3  4  4  0  0  0  0
  4  5  4  0  0  0  0
  5  6  4  0  0  0  0
  1  6  4  0  0  0  0
  3  7  1  0  0  0  0
  6  8  1  0  0  0  0
  8  9  1  0  0  0  0
  8 10  2  0  0  0  0
M  END
>  <Compound Name> (211)
4-chloronitrobenzene

>  <Formula> (211)
C6H4ClNO2

>  <LogP> (211)
2.39

>  <LUMO> (211)
-1.36

>  <MOL_ID> (211)
211

>  <Activity> (211)
-99

$$$$
7-nitrobenz[a]anthracene
csChmFindW1207992328
[comments]
 21 24  0     0  0  0  0  0  0  1 V2000
   -0.0000    4.1977    0.0000 C   0  0  0  0  0  0  0  0  0  0
   -0.0000    2.7985    0.0000 C   0  0  0  0  0  0  0  0  0  0
    1.1660    2.0989    0.0000 C   0  0  0  0  0  0  0  0  0  0
    2.3787    2.7985    0.0000 C   0  0  0  0  0  0  0  0  0  0
    2.3787    4.1977    0.0000 C   0  0  0  0  0  0  0  0  0  0
    1.1660    4.8973    0.0000 C   0  0  0  0  0  0  0  0  0  0
    3.5914    2.0989    0.0000 C   0  0  0  0  0  0  0  0  0  0
    4.8040    2.7985    0.0000 C   0  0  0  0  0  0  0  0  0  0
    4.8040    4.1977    0.0000 C   0  0  0  0  0  0  0  0  0  0
    3.5914    4.8973    0.0000 C   0  0  0  0  0  0  0  0  0  0
    6.0167    2.0989    0.0000 C   0  0  0  0  0  0  0  0  0  0
    7.2294    2.7985    0.0000 C   0  0  0  0  0  0  0  0  0  0
    7.2294    4.1977    0.0000 C   0  0  0  0  0  0  0  0  0  0
    6.0167    4.8973    0.0000 C   0  0  0  0  0  0  0  0  0  0
    8.4420    4.8973    0.0000 C   0  0  0  0  0  0  0  0  0  0
    8.4420    6.2966    0.0000 C   0  0  0  0  0  0  0  0  0  0
    7.2294    6.9495    0.0000 C   0  0  0  0  0  0  0  0  0  0
    6.0167    6.2966    0.0000 C   0  0  0  0  0  0  0  0  0  0
    3.5914    0.6996    0.0000 N   0  3  0  0  0  0  0  0  0  0
    2.3787   -0.0000    0.0000 O   0  5  0  0  0  0  0  0  0  0
    4.8040   -0.0000    0.0000 O   0  0  0  0  0  0  0  0  0  0
  1  2  4  0  0  0  0
  2  3  4  0  0  0  0
  3  4  4  0  0  0  0
  4  5  4  0  0  0  0
  5  6  4  0  0  0  0
  1  6  4  0  0  0  0
  4  7  4  0  0  0  0
  7  8  4  0  0  0  0
  8  9  4  0  0  0  0
  9 10  4  0  0  0  0
  5 10  4  0  0  0  0
  8 11  4  0  0  0  0
 11 12  4  0  0  0  0
 12 13  4  0  0  0  0
 13 14  4  0  0  0  0
  9 14  4  0  0  0  0
 13 15  4  0  0  0  0
 15 16  4  0  0  0  0
 16 17  4  0  0  0  0
 17 18  4  0  0  0  0
 14 18  4  0  0  0  0
  7 19  1  0  0  0  0
 19 20  1  0  0  0  0
 19 21  2  0  0  0  0
M  END
>  <Compound Name> (212)
7-nitrobenz[a]anthracene

>  <Formula> (212)
C18H11NO2

>  <LogP> (212)
5.41

>  <LUMO> (212)
-1.723

>  <MOL_ID> (212)
212

>  <Activity> (212)
-0.52

$$$$
2,4-dichloronitrobenzene
csChmFindW1207992328
[comments]
 11 11  0     0  0  0  0  0  0  1 V2000
    3.4514    0.0000    0.0000 C   0  0  0  0  0  0  0  0  0  0
    4.1510    1.2127    0.0000 C   0  0  0  0  0  0  0  0  0  0
    3.4514    2.4253    0.0000 C   0  0  0  0  0  0  0  0  0  0
    2.0522    2.4253    0.0000 C   0  0  0  0  0  0  0  0  0  0
    1.3526    1.2127    0.0000 C   0  0  0  0  0  0  0  0  0  0
    2.0522    0.0000    0.0000 C   0  0  0  0  0  0  0  0  0  0
    4.1510    3.6380    0.0000 Cl  0  0  0  0  0  0  0  0  0  0
   -0.0000    1.2127    0.0000 Cl  0  0  0  0  0  0  0  0  0  0
    5.5502    1.2127    0.0000 N   0  3  0  0  0  0  0  0  0  0
    6.2498    0.0000    0.0000 O   0  5  0  0  0  0  0  0  0  0
    6.2498    2.4253    0.0000 O   0  0  0  0  0  0  0  0  0  0
  1  2  4  0  0  0  0
  2  3  4  0  0  0  0
  3  4  4  0  0  0  0
  4  5  4  0  0  0  0
  5  6  4  0  0  0  0
  1  6  4  0  0  0  0
  3  7  1  0  0  0  0
  5  8  1  0  0  0  0
  2  9  1  0  0  0  0
  9 10  1  0  0  0  0
  9 11  2  0  0  0  0
M  END
>  <Compound Name> (213)
2,4-dichloronitrobenzene

>  <Formula> (213)
C6H3Cl2NO2

>  <LogP> (213)
3.09

>  <LUMO> (213)
-1.351

>  <MOL_ID> (213)
213

>  <Activity> (213)
-99

$$$$
9-nitroanthracene
csChmFindW1207992328
[comments]
 17 19  0     0  0  0  0  0  0  1 V2000
   -0.0000    2.0989    0.0000 C   0  0  0  0  0  0  0  0  0  0
   -0.0000    0.6996    0.0000 C   0  0  0  0  0  0  0  0  0  0
    1.1660    0.0000    0.0000 C   0  0  0  0  0  0  0  0  0  0
    2.3787    0.6996    0.0000 C   0  0  0  0  0  0  0  0  0  0
    2.3787    2.0989    0.0000 C   0  0  0  0  0  0  0  0  0  0
    1.1660    2.7985    0.0000 C   0  0  0  0  0  0  0  0  0  0
    3.5914    0.0000    0.0000 C   0  0  0  0  0  0  0  0  0  0
    4.8040    0.6996    0.0000 C   0  0  0  0  0  0  0  0  0  0
    4.8040    2.0989    0.0000 C   0  0  0  0  0  0  0  0  0  0
    3.5914    2.7985    0.0000 C   0  0  0  0  0  0  0  0  0  0
    6.0167    0.0000    0.0000 C   0  0  0  0  0  0  0  0  0  0
    7.2294    0.6996    0.0000 C   0  0  0  0  0  0  0  0  0  0
    7.2294    2.0989    0.0000 C   0  0  0  0  0  0  0  0  0  0
    6.0167    2.7985    0.0000 C   0  0  0  0  0  0  0  0  0  0
    3.5914    4.1977    0.0000 N   0  3  0  0  0  0  0  0  0  0
    4.8040    4.8507    0.0000 O   0  5  0  0  0  0  0  0  0  0
    2.3787    4.8507    0.0000 O   0  0  0  0  0  0  0  0  0  0
  1  2  4  0  0  0  0
  2  3  4  0  0  0  0
  3  4  4  0  0  0  0
  4  5  4  0  0  0  0
  5  6  4  0  0  0  0
  1  6  4  0  0  0  0
  4  7  4  0  0  0  0
  7  8  4  0  0  0  0
  8  9  4  0  0  0  0
  9 10  4  0  0  0  0
  5 10  4  0  0  0  0
  8 11  4  0  0  0  0
 11 12  4  0  0  0  0
 12 13  4  0  0  0  0
 13 14  4  0  0  0  0
  9 14  4  0  0  0  0
 10 15  1  0  0  0  0
 15 16  1  0  0  0  0
 15 17  2  0  0  0  0
M  END
>  <Compound Name> (214)
9-nitroanthracene

>  <Formula> (214)
C14H9NO2

>  <LogP> (214)
4.78

>  <LUMO> (214)
-1.755

>  <MOL_ID> (214)
214

>  <Activity> (214)
-0.95

$$$$
3,4-dichloronitrobenzene
csChmFindW1207992328
[comments]
 11 11  0     0  0  0  0  0  0  1 V2000
    1.3526    1.2127    0.0000 C   0  0  0  0  0  0  0  0  0  0
    2.0522    0.0000    0.0000 C   0  0  0  0  0  0  0  0  0  0
    3.4514    0.0000    0.0000 C   0  0  0  0  0  0  0  0  0  0
    4.1510    1.2127    0.0000 C   0  0  0  0  0  0  0  0  0  0
    3.4514    2.4253    0.0000 C   0  0  0  0  0  0  0  0  0  0
    2.0522    2.4253    0.0000 C   0  0  0  0  0  0  0  0  0  0
    1.3526    3.6380    0.0000 Cl  0  0  0  0  0  0  0  0  0  0
   -0.0000    1.2127    0.0000 Cl  0  0  0  0  0  0  0  0  0  0
    5.5502    1.2127    0.0000 N   0  3  0  0  0  0  0  0  0  0
    6.2498    0.0000    0.0000 O   0  5  0  0  0  0  0  0  0  0
    6.2498    2.4253    0.0000 O   0  0  0  0  0  0  0  0  0  0
  1  2  4  0  0  0  0
  2  3  4  0  0  0  0
  3  4  4  0  0  0  0
  4  5  4  0  0  0  0
  5  6  4  0  0  0  0
  1  6  4  0  0  0  0
  6  7  1  0  0  0  0
  1  8  1  0  0  0  0
  4  9  1  0  0  0  0
  9 10  1  0  0  0  0
  9 11  2  0  0  0  0
M  END
>  <Compound Name> (215)
3,4-dichloronitrobenzene

>  <Formula> (215)
C6H3Cl2NO2

>  <LogP> (215)
3.12

>  <LUMO> (215)
-1.538

>  <MOL_ID> (215)
215

>  <Activity> (215)
-99

$$$$
trans-1,2-dihydro-9-nitroanthracene-1,2-diol
csChmFindW1207992328
[comments]
 19 21  0     0  0  0  0  0  0  1 V2000
   -0.0000    2.0988    0.0000 C   0  0  0  0  0  0  0  0  0  0
   -0.0000    0.6996    0.0000 C   0  0  0  0  0  0  0  0  0  0
    1.1660   -0.0000    0.0000 C   0  0  0  0  0  0  0  0  0  0
    2.3787    0.6996    0.0000 C   0  0  0  0  0  0  0  0  0  0
    2.3787    2.0988    0.0000 C   0  0  0  0  0  0  0  0  0  0
    1.1660    2.7985    0.0000 C   0  0  0  0  0  0  0  0  0  0
    3.5914   -0.0000    0.0000 C   0  0  0  0  0  0  0  0  0  0
    4.8040    0.6996    0.0000 C   0  0  0  0  0  0  0  0  0  0
    4.8040    2.0988    0.0000 C   0  0  0  0  0  0  0  0  0  0
    3.5914    2.7985    0.0000 C   0  0  0  0  0  0  0  0  0  0
    6.0167   -0.0000    0.0000 C   0  0  0  0  0  0  0  0  0  0
    7.2293    0.6996    0.0000 C   0  0  0  0  0  0  0  0  0  0
    7.2293    2.0988    0.0000 C   0  0  0  0  0  0  0  0  0  0
    6.0167    2.7985    0.0000 C   0  0  0  0  0  0  0  0  0  0
    6.0167    4.1977    0.0000 O   0  0  0  0  0  0  0  0  0  0
    8.4420    2.7985    0.0000 O   0  0  0  0  0  0  0  0  0  0
    3.5914    4.1977    0.0000 N   0  3  0  0  0  0  0  0  0  0
    4.8040    4.8973    0.0000 O   0  5  0  0  0  0  0  0  0  0
    2.3787    4.8973    0.0000 O   0  0  0  0  0  0  0  0  0  0
  1  2  4  0  0  0  0
  2  3  4  0  0  0  0
  3  4  4  0  0  0  0
  4  5  4  0  0  0  0
  5  6  4  0  0  0  0
  1  6  4  0  0  0  0
  4  7  4  0  0  0  0
  7  8  4  0  0  0  0
  8  9  4  0  0  0  0
  9 10  4  0  0  0  0
  5 10  4  0  0  0  0
  8 11  1  0  0  0  0
 11 12  2  0  0  0  0
 12 13  1  0  0  0  0
 13 14  1  0  0  0  0
  9 14  1  0  0  0  0
 14 15  1  6  0  0  0
 13 16  1  1  0  0  0
 10 17  1  0  0  0  0
 17 18  1  0  0  0  0
 17 19  2  0  0  0  0
M  END
>  <Compound Name> (216)
trans-1,2-dihydro-9-nitroanthracene-1,2-diol

>  <Formula> (216)
C14H11NO4

>  <LogP> (216)
1.38

>  <LUMO> (216)
-1.392

>  <MOL_ID> (216)
216

>  <Activity> (216)
-99

$$$$
trans-3,4-dihydro-9-nitroanthracene-3,4-diol
csChmFindW1207992328
[comments]
 19 21  0     0  0  0  0  0  0  1 V2000
   -0.0000    3.5083    0.0000 C   0  0  0  0  0  0  0  0  0  0
   -0.0000    2.0860    0.0000 C   0  0  0  0  0  0  0  0  0  0
    1.1852    1.4223    0.0000 C   0  0  0  0  0  0  0  0  0  0
    2.4179    2.0860    0.0000 C   0  0  0  0  0  0  0  0  0  0
    2.4179    3.5083    0.0000 C   0  0  0  0  0  0  0  0  0  0
    1.1852    4.1721    0.0000 C   0  0  0  0  0  0  0  0  0  0
    3.6505    1.4223    0.0000 C   0  0  0  0  0  0  0  0  0  0
    4.8832    2.0860    0.0000 C   0  0  0  0  0  0  0  0  0  0
    4.8832    3.5083    0.0000 C   0  0  0  0  0  0  0  0  0  0
    3.6505    4.1721    0.0000 C   0  0  0  0  0  0  0  0  0  0
    6.1159    1.4223    0.0000 C   0  0  0  0  0  0  0  0  0  0
    7.3959    2.0860    0.0000 C   0  0  0  0  0  0  0  0  0  0
    7.3959    3.5083    0.0000 C   0  0  0  0  0  0  0  0  0  0
    6.1159    4.1721    0.0000 C   0  0  0  0  0  0  0  0  0  0
    6.1159   -0.0000    0.0000 O   0  0  0  0  0  0  0  0  0  0
    8.6286    1.4223    0.0000 O   0  0  0  0  0  0  0  0  0  0
    3.6505    5.6418    0.0000 N   0  3  0  0  0  0  0  0  0  0
    4.8832    6.3055    0.0000 O   0  5  0  0  0  0  0  0  0  0
    2.4179    6.3055    0.0000 O   0  0  0  0  0  0  0  0  0  0
  1  2  4  0  0  0  0
  2  3  4  0  0  0  0
  3  4  4  0  0  0  0
  4  5  4  0  0  0  0
  5  6  4  0  0  0  0
  1  6  4  0  0  0  0
  4  7  4  0  0  0  0
  7  8  4  0  0  0  0
  8  9  4  0  0  0  0
  9 10  4  0  0  0  0
  5 10  4  0  0  0  0
  8 11  1  0  0  0  0
 11 12  1  0  0  0  0
 12 13  1  0  0  0  0
 13 14  2  0  0  0  0
  9 14  1  0  0  0  0
 11 15  1  6  0  0  0
 12 16  1  1  0  0  0
 10 17  1  0  0  0  0
 17 18  1  0  0  0  0
 17 19  2  0  0  0  0
M  END
>  <Compound Name> (217)
trans-3,4-dihydro-9-nitroanthracene-3,4-diol

>  <Formula> (217)
C14H11NO4

>  <LogP> (217)
1.38

>  <LUMO> (217)
-1.447

>  <MOL_ID> (217)
217

>  <Activity> (217)
-99

$$$$
6-nitro-7,8,9,10-tetrahydrobenzo[a]pyrene
csChmFindW1207992328
[comments]
 23 27  0     0  0  0  0  0  0  1 V2000
    2.3800    4.2000    0.0000 C   0  0  0  0  0  0  0  0  0  0
    2.3800    2.8000    0.0000 C   0  0  0  0  0  0  0  0  0  0
    3.5933    2.1000    0.0000 C   0  0  0  0  0  0  0  0  0  0
    4.8066    2.8000    0.0000 C   0  0  0  0  0  0  0  0  0  0
    4.8066    4.2000    0.0000 C   0  0  0  0  0  0  0  0  0  0
    3.5933    4.9000    0.0000 C   0  0  0  0  0  0  0  0  0  0
    6.0200    4.9000    0.0000 C   0  0  0  0  0  0  0  0  0  0
    6.0200    6.3000    0.0000 C   0  0  0  0  0  0  0  0  0  0
    4.8066    6.9533    0.0000 C   0  0  0  0  0  0  0  0  0  0
    3.5933    6.3000    0.0000 C   0  0  0  0  0  0  0  0  0  0
    7.2333    4.2000    0.0000 C   0  0  0  0  0  0  0  0  0  0
    8.4466    4.9000    0.0000 C   0  0  0  0  0  0  0  0  0  0
    8.4466    6.3000    0.0000 C   0  0  0  0  0  0  0  0  0  0
    7.2333    6.9533    0.0000 C   0  0  0  0  0  0  0  0  0  0
    6.0200    2.1000    0.0000 C   0  0  0  0  0  0  0  0  0  0
    7.2333    2.8000    0.0000 C   0  0  0  0  0  0  0  0  0  0
    1.1667    4.9000    0.0000 C   0  0  0  0  0  0  0  0  0  0
   -0.0000    4.2000    0.0000 C   0  0  0  0  0  0  0  0  0  0
   -0.0000    2.8000    0.0000 C   0  0  0  0  0  0  0  0  0  0
    1.1667    2.1000    0.0000 C   0  0  0  0  0  0  0  0  0  0
    3.5933    0.7000    0.0000 N   0  3  0  0  0  0  0  0  0  0
    2.3800   -0.0000    0.0000 O   0  5  0  0  0  0  0  0  0  0
    4.8066   -0.0000    0.0000 O   0  0  0  0  0  0  0  0  0  0
  1  2  4  0  0  0  0
  2  3  4  0  0  0  0
  3  4  4  0  0  0  0
  4  5  4  0  0  0  0
  5  6  4  0  0  0  0
  1  6  4  0  0  0  0
  5  7  4  0  0  0  0
  7  8  4  0  0  0  0
  8  9  4  0  0  0  0
  9 10  4  0  0  0  0
  6 10  4  0  0  0  0
  7 11  4  0  0  0  0
 11 12  4  0  0  0  0
 12 13  4  0  0  0  0
 13 14  4  0  0  0  0
  8 14  4  0  0  0  0
  4 15  4  0  0  0  0
 15 16  4  0  0  0  0
 11 16  4  0  0  0  0
  1 17  1  0  0  0  0
 17 18  1  0  0  0  0
 18 19  1  0  0  0  0
 19 20  1  0  0  0  0
  2 20  1  0  0  0  0
  3 21  1  0  0  0  0
 21 22  1  0  0  0  0
 21 23  2  0  0  0  0
M  END
>  <Compound Name> (218)
6-nitro-7,8,9,10-tetrahydrobenzo[a]pyrene

>  <Formula> (218)
C20H15NO2

>  <LogP> (218)
6.57

>  <LUMO> (218)
-1.717

>  <MOL_ID> (218)
218

>  <Activity> (218)
-99

$$$$
t-8,9-dihydro-7-nitrobenz[a]anthracene-8,9-diol
csChmFindW1207992328
[comments]
 23 26  0     0  0  0  0  0  0  1 V2000
    1.1667    4.2000    0.0000 C   0  0  0  0  0  0  0  0  0  0
    1.1667    2.8000    0.0000 C   0  0  0  0  0  0  0  0  0  0
    2.3800    2.1000    0.0000 C   0  0  0  0  0  0  0  0  0  0
    3.5467    2.8000    0.0000 C   0  0  0  0  0  0  0  0  0  0
    3.5467    4.2000    0.0000 C   0  0  0  0  0  0  0  0  0  0
    2.3800    4.8533    0.0000 C   0  0  0  0  0  0  0  0  0  0
    4.8067    2.1000    0.0000 C   0  0  0  0  0  0  0  0  0  0
    6.0200    2.8000    0.0000 C   0  0  0  0  0  0  0  0  0  0
    6.0200    4.2000    0.0000 C   0  0  0  0  0  0  0  0  0  0
    4.8067    4.8533    0.0000 C   0  0  0  0  0  0  0  0  0  0
    7.1867    2.1000    0.0000 C   0  0  0  0  0  0  0  0  0  0
    8.4467    2.8000    0.0000 C   0  0  0  0  0  0  0  0  0  0
    8.4467    4.2000    0.0000 C   0  0  0  0  0  0  0  0  0  0
    7.1867    4.8533    0.0000 C   0  0  0  0  0  0  0  0  0  0
    0.0000    2.1000    0.0000 O   0  0  0  0  0  0  0  0  0  0
    2.3800    0.7000    0.0000 O   0  0  0  0  0  0  0  0  0  0
    4.8067    0.7000    0.0000 N   0  3  0  0  0  0  0  0  0  0
    3.5467    0.0000    0.0000 O   0  5  0  0  0  0  0  0  0  0
    6.0200    0.0000    0.0000 O   0  0  0  0  0  0  0  0  0  0
    9.5667    4.9000    0.0000 C   0  0  0  0  0  0  0  0  0  0
    9.5667    6.3000    0.0000 C   0  0  0  0  0  0  0  0  0  0
    8.4467    6.9067    0.0000 C   0  0  0  0  0  0  0  0  0  0
    7.1867    6.2067    0.0000 C   0  0  0  0  0  0  0  0  0  0
  1  2  1  0  0  0  0
  2  3  1  0  0  0  0
  3  4  1  0  0  0  0
  4  5  4  0  0  0  0
  5  6  1  0  0  0  0
  1  6  2  0  0  0  0
  4  7  4  0  0  0  0
  7  8  4  0  0  0  0
  8  9  4  0  0  0  0
  9 10  4  0  0  0  0
  5 10  4  0  0  0  0
  8 11  4  0  0  0  0
 11 12  4  0  0  0  0
 12 13  4  0  0  0  0
 13 14  4  0  0  0  0
  9 14  4  0  0  0  0
  2 15  1  6  0  0  0
  3 16  1  1  0  0  0
  7 17  1  0  0  0  0
 17 18  1  0  0  0  0
 17 19  2  0  0  0  0
 13 20  4  0  0  0  0
 20 21  4  0  0  0  0
 21 22  4  0  0  0  0
 22 23  4  0  0  0  0
 14 23  4  0  0  0  0
M  END
>  <Compound Name> (219)
t-8,9-dihydro-7-nitrobenz[a]anthracene-8,9-diol

>  <Formula> (219)
C18H13NO4

>  <LogP> (219)
2.55

>  <LUMO> (219)
-1.636

>  <MOL_ID> (219)
219

>  <Activity> (219)
-99

$$$$
t-3,4-dihydro-7-nitrobenz[a]anthracene-3,4-diol
csChmFindW1207992328
[comments]
 23 26  0     0  0  0  0  0  0  1 V2000
   -0.0000    4.1977    0.0000 C   0  0  0  0  0  0  0  0  0  0
   -0.0000    2.7984    0.0000 C   0  0  0  0  0  0  0  0  0  0
    1.1660    2.0988    0.0000 C   0  0  0  0  0  0  0  0  0  0
    2.3787    2.7984    0.0000 C   0  0  0  0  0  0  0  0  0  0
    2.3787    4.1977    0.0000 C   0  0  0  0  0  0  0  0  0  0
    1.1660    4.8973    0.0000 C   0  0  0  0  0  0  0  0  0  0
    3.5913    2.0988    0.0000 C   0  0  0  0  0  0  0  0  0  0
    4.8040    2.7984    0.0000 C   0  0  0  0  0  0  0  0  0  0
    4.8040    4.1977    0.0000 C   0  0  0  0  0  0  0  0  0  0
    3.5913    4.8973    0.0000 C   0  0  0  0  0  0  0  0  0  0
    6.0167    2.0988    0.0000 C   0  0  0  0  0  0  0  0  0  0
    7.2293    2.7984    0.0000 C   0  0  0  0  0  0  0  0  0  0
    7.2293    4.1977    0.0000 C   0  0  0  0  0  0  0  0  0  0
    6.0167    4.8973    0.0000 C   0  0  0  0  0  0  0  0  0  0
    8.4420    4.8973    0.0000 C   0  0  0  0  0  0  0  0  0  0
    8.4420    6.2965    0.0000 C   0  0  0  0  0  0  0  0  0  0
    7.2293    6.9028    0.0000 C   0  0  0  0  0  0  0  0  0  0
    6.0167    6.2965    0.0000 C   0  0  0  0  0  0  0  0  0  0
    9.6546    6.9028    0.0000 O   0  0  0  0  0  0  0  0  0  0
    9.6546    4.1977    0.0000 O   0  0  0  0  0  0  0  0  0  0
    3.5913    0.6996    0.0000 N   0  3  0  0  0  0  0  0  0  0
    2.3787    0.0000    0.0000 O   0  5  0  0  0  0  0  0  0  0
    4.8040    0.0000    0.0000 O   0  0  0  0  0  0  0  0  0  0
  1  2  4  0  0  0  0
  2  3  4  0  0  0  0
  3  4  4  0  0  0  0
  4  5  4  0  0  0  0
  5  6  4  0  0  0  0
  1  6  4  0  0  0  0
  4  7  4  0  0  0  0
  7  8  4  0  0  0  0
  8  9  4  0  0  0  0
  9 10  4  0  0  0  0
  5 10  4  0  0  0  0
  8 11  4  0  0  0  0
 11 12  4  0  0  0  0
 12 13  4  0  0  0  0
 13 14  4  0  0  0  0
  9 14  4  0  0  0  0
 13 15  1  0  0  0  0
 15 16  1  0  0  0  0
 16 17  1  0  0  0  0
 17 18  2  0  0  0  0
 14 18  1  0  0  0  0
 16 19  1  6  0  0  0
 15 20  1  1  0  0  0
  7 21  1  0  0  0  0
 21 22  1  0  0  0  0
 21 23  2  0  0  0  0
M  END
>  <Compound Name> (220)
t-3,4-dihydro-7-nitrobenz[a]anthracene-3,4-diol

>  <Formula> (220)
C18H13NO4

>  <LogP> (220)
2.55

>  <LUMO> (220)
-1.808

>  <MOL_ID> (220)
220

>  <Activity> (220)
-99

$$$$
1-nitrotriphenylene
csChmFindW1207992328
[comments]
 21 24  0     0  0  0  0  0  0  1 V2000
    2.3787    4.1977    0.0000 C   0  0  0  0  0  0  0  0  0  0
    2.3787    2.7985    0.0000 C   0  0  0  0  0  0  0  0  0  0
    3.5913    2.0988    0.0000 C   0  0  0  0  0  0  0  0  0  0
    4.8040    2.7985    0.0000 C   0  0  0  0  0  0  0  0  0  0
    4.8040    4.1977    0.0000 C   0  0  0  0  0  0  0  0  0  0
    3.5913    4.8973    0.0000 C   0  0  0  0  0  0  0  0  0  0
    1.1660    4.8973    0.0000 C   0  0  0  0  0  0  0  0  0  0
    0.0000    4.1977    0.0000 C   0  0  0  0  0  0  0  0  0  0
    0.0000    2.7985    0.0000 C   0  0  0  0  0  0  0  0  0  0
    1.1660    2.0988    0.0000 C   0  0  0  0  0  0  0  0  0  0
    6.0167    4.8973    0.0000 C   0  0  0  0  0  0  0  0  0  0
    6.0167    6.2965    0.0000 C   0  0  0  0  0  0  0  0  0  0
    4.8040    6.9961    0.0000 C   0  0  0  0  0  0  0  0  0  0
    3.5913    6.2965    0.0000 C   0  0  0  0  0  0  0  0  0  0
    3.5913    0.6996    0.0000 C   0  0  0  0  0  0  0  0  0  0
    4.8040   -0.0000    0.0000 C   0  0  0  0  0  0  0  0  0  0
    6.0167    0.6996    0.0000 C   0  0  0  0  0  0  0  0  0  0
    6.0167    2.0988    0.0000 C   0  0  0  0  0  0  0  0  0  0
    2.3787    6.9961    0.0000 N   0  3  0  0  0  0  0  0  0  0
    2.3787    8.3487    0.0000 O   0  5  0  0  0  0  0  0  0  0
    1.1660    6.2965    0.0000 O   0  0  0  0  0  0  0  0  0  0
  1  2  4  0  0  0  0
  2  3  4  0  0  0  0
  3  4  4  0  0  0  0
  4  5  4  0  0  0  0
  5  6  4  0  0  0  0
  1  6  4  0  0  0  0
  1  7  4  0  0  0  0
  7  8  4  0  0  0  0
  8  9  4  0  0  0  0
  9 10  4  0  0  0  0
  2 10  4  0  0  0  0
  5 11  4  0  0  0  0
 11 12  4  0  0  0  0
 12 13  4  0  0  0  0
 13 14  4  0  0  0  0
  6 14  4  0  0  0  0
  3 15  4  0  0  0  0
 15 16  4  0  0  0  0
 16 17  4  0  0  0  0
 17 18  4  0  0  0  0
  4 18  4  0  0  0  0
 14 19  1  0  0  0  0
 19 20  1  0  0  0  0
 19 21  2  0  0  0  0
M  END
>  <Compound Name> (221)
1-nitrotriphenylene

>  <Formula> (221)
C18H11NO2

>  <LogP> (221)
5.41

>  <LUMO> (221)
-1.113

>  <MOL_ID> (221)
221

>  <Activity> (221)
-99

$$$$
6nitro-7hydroxy-7,8,9,10-tetrahydrobenzo[a]pyrene
csChmFindW1207992328
[comments]
 24 28  0     0  0  0  0  0  0  1 V2000
    2.3787    4.1977    0.0000 C   0  0  0  0  0  0  0  0  0  0
    2.3787    2.7984    0.0000 C   0  0  0  0  0  0  0  0  0  0
    3.5913    2.0988    0.0000 C   0  0  0  0  0  0  0  0  0  0
    4.8040    2.7984    0.0000 C   0  0  0  0  0  0  0  0  0  0
    4.8040    4.1977    0.0000 C   0  0  0  0  0  0  0  0  0  0
    3.5913    4.8973    0.0000 C   0  0  0  0  0  0  0  0  0  0
    6.0167    4.8973    0.0000 C   0  0  0  0  0  0  0  0  0  0
    6.0167    6.2965    0.0000 C   0  0  0  0  0  0  0  0  0  0
    4.8040    6.9495    0.0000 C   0  0  0  0  0  0  0  0  0  0
    3.5913    6.2965    0.0000 C   0  0  0  0  0  0  0  0  0  0
    7.2293    4.1977    0.0000 C   0  0  0  0  0  0  0  0  0  0
    8.4420    4.8973    0.0000 C   0  0  0  0  0  0  0  0  0  0
    8.4420    6.2965    0.0000 C   0  0  0  0  0  0  0  0  0  0
    7.2293    6.9495    0.0000 C   0  0  0  0  0  0  0  0  0  0
    6.0167    2.0988    0.0000 C   0  0  0  0  0  0  0  0  0  0
    7.2293    2.7984    0.0000 C   0  0  0  0  0  0  0  0  0  0
    1.1660    4.8973    0.0000 C   0  0  0  0  0  0  0  0  0  0
   -0.0000    4.1977    0.0000 C   0  0  0  0  0  0  0  0  0  0
   -0.0000    2.7984    0.0000 C   0  0  0  0  0  0  0  0  0  0
    1.1660    2.0988    0.0000 C   0  0  0  0  0  0  0  0  0  0
    1.1660    0.6996    0.0000 O   0  0  0  0  0  0  0  0  0  0
    3.5913    0.6996    0.0000 N   0  3  0  0  0  0  0  0  0  0
    2.3787    0.0000    0.0000 O   0  5  0  0  0  0  0  0  0  0
    4.8040    0.0000    0.0000 O   0  0  0  0  0  0  0  0  0  0
  1  2  4  0  0  0  0
  2  3  4  0  0  0  0
  3  4  4  0  0  0  0
  4  5  4  0  0  0  0
  5  6  4  0  0  0  0
  1  6  4  0  0  0  0
  5  7  4  0  0  0  0
  7  8  4  0  0  0  0
  8  9  4  0  0  0  0
  9 10  4  0  0  0  0
  6 10  4  0  0  0  0
  7 11  4  0  0  0  0
 11 12  4  0  0  0  0
 12 13  4  0  0  0  0
 13 14  4  0  0  0  0
  8 14  4  0  0  0  0
  4 15  4  0  0  0  0
 15 16  4  0  0  0  0
 11 16  4  0  0  0  0
  1 17  1  0  0  0  0
 17 18  1  0  0  0  0
 18 19  1  0  0  0  0
 19 20  1  0  0  0  0
  2 20  1  0  0  0  0
 20 21  1  0  0  0  0
  3 22  1  0  0  0  0
 22 23  1  0  0  0  0
 22 24  2  0  0  0  0
M  END
>  <Compound Name> (222)
6nitro-7hydroxy-7,8,9,10-tetrahydrobenzo[a]pyrene

>  <Formula> (222)
C20H15NO3

>  <LogP> (222)
4.78

>  <LUMO> (222)
-1.748

>  <MOL_ID> (222)
222

>  <Activity> (222)
-99

$$$$
11-hydroxy-7-nitrobenz[a]anthracene
csChmFindW1207992328
[comments]
 22 25  0     0  0  0  0  0  0  1 V2000
   -0.0000    4.1977    0.0000 C   0  0  0  0  0  0  0  0  0  0
   -0.0000    2.7984    0.0000 C   0  0  0  0  0  0  0  0  0  0
    1.1660    2.0988    0.0000 C   0  0  0  0  0  0  0  0  0  0
    2.3787    2.7984    0.0000 C   0  0  0  0  0  0  0  0  0  0
    2.3787    4.1977    0.0000 C   0  0  0  0  0  0  0  0  0  0
    1.1660    4.8973    0.0000 C   0  0  0  0  0  0  0  0  0  0
    3.5913    2.0988    0.0000 C   0  0  0  0  0  0  0  0  0  0
    4.8040    2.7984    0.0000 C   0  0  0  0  0  0  0  0  0  0
    4.8040    4.1977    0.0000 C   0  0  0  0  0  0  0  0  0  0
    3.5913    4.8973    0.0000 C   0  0  0  0  0  0  0  0  0  0
    6.0167    2.0988    0.0000 C   0  0  0  0  0  0  0  0  0  0
    7.2293    2.7984    0.0000 C   0  0  0  0  0  0  0  0  0  0
    7.2293    4.1977    0.0000 C   0  0  0  0  0  0  0  0  0  0
    6.0167    4.8973    0.0000 C   0  0  0  0  0  0  0  0  0  0
    8.4420    4.8973    0.0000 C   0  0  0  0  0  0  0  0  0  0
    8.4420    6.2965    0.0000 C   0  0  0  0  0  0  0  0  0  0
    7.2293    6.9495    0.0000 C   0  0  0  0  0  0  0  0  0  0
    6.0167    6.2965    0.0000 C   0  0  0  0  0  0  0  0  0  0
    3.5913    0.6996    0.0000 N   0  3  0  0  0  0  0  0  0  0
    2.3787    0.0000    0.0000 O   0  5  0  0  0  0  0  0  0  0
    4.8040    0.0000    0.0000 O   0  0  0  0  0  0  0  0  0  0
    1.1660    6.2965    0.0000 O   0  0  0  0  0  0  0  0  0  0
  1  2  4  0  0  0  0
  2  3  4  0  0  0  0
  3  4  4  0  0  0  0
  4  5  4  0  0  0  0
  5  6  4  0  0  0  0
  1  6  4  0  0  0  0
  4  7  4  0  0  0  0
  7  8  4  0  0  0  0
  8  9  4  0  0  0  0
  9 10  4  0  0  0  0
  5 10  4  0  0  0  0
  8 11  4  0  0  0  0
 11 12  4  0  0  0  0
 12 13  4  0  0  0  0
 13 14  4  0  0  0  0
  9 14  4  0  0  0  0
 13 15  4  0  0  0  0
 15 16  4  0  0  0  0
 16 17  4  0  0  0  0
 17 18  4  0  0  0  0
 14 18  4  0  0  0  0
  7 19  1  0  0  0  0
 19 20  1  0  0  0  0
 19 21  2  0  0  0  0
  6 22  1  0  0  0  0
M  END
>  <Compound Name> (223)
11-hydroxy-7-nitrobenz[a]anthracene

>  <Formula> (223)
C18H11NO3

>  <LogP> (223)
5.06

>  <LUMO> (223)
-1.82

>  <MOL_ID> (223)
223

>  <Activity> (223)
-99

$$$$
3-nitroperylene
csChmFindW1207992328
[comments]
 23 27  0     0  0  0  0  0  0  1 V2000
    2.0533    2.4266    0.0000 C   0  0  0  0  0  0  0  0  0  0
    0.6533    2.4266    0.0000 C   0  0  0  0  0  0  0  0  0  0
    0.0000    1.2133    0.0000 C   0  0  0  0  0  0  0  0  0  0
    0.6533   -0.0000    0.0000 C   0  0  0  0  0  0  0  0  0  0
    2.0533   -0.0000    0.0000 C   0  0  0  0  0  0  0  0  0  0
    2.7533    1.2133    0.0000 C   0  0  0  0  0  0  0  0  0  0
    2.7533    3.6400    0.0000 C   0  0  0  0  0  0  0  0  0  0
    2.0533    4.8066    0.0000 C   0  0  0  0  0  0  0  0  0  0
    0.6533    4.8066    0.0000 C   0  0  0  0  0  0  0  0  0  0
    0.0000    3.6400    0.0000 C   0  0  0  0  0  0  0  0  0  0
    4.1533    1.2133    0.0000 C   0  0  0  0  0  0  0  0  0  0
    4.8533    2.4266    0.0000 C   0  0  0  0  0  0  0  0  0  0
    4.1533    3.6400    0.0000 C   0  0  0  0  0  0  0  0  0  0
    6.2533    2.4266    0.0000 C   0  0  0  0  0  0  0  0  0  0
    6.9533    3.6400    0.0000 C   0  0  0  0  0  0  0  0  0  0
    6.2533    4.8066    0.0000 C   0  0  0  0  0  0  0  0  0  0
    4.8533    4.8066    0.0000 C   0  0  0  0  0  0  0  0  0  0
    4.8533   -0.0000    0.0000 C   0  0  0  0  0  0  0  0  0  0
    6.2533   -0.0000    0.0000 C   0  0  0  0  0  0  0  0  0  0
    6.9533    1.2133    0.0000 C   0  0  0  0  0  0  0  0  0  0
    8.3533    1.2133    0.0000 N   0  3  0  0  0  0  0  0  0  0
    9.0533   -0.0000    0.0000 O   0  5  0  0  0  0  0  0  0  0
    9.0533    2.4266    0.0000 O   0  0  0  0  0  0  0  0  0  0
  1  2  4  0  0  0  0
  2  3  4  0  0  0  0
  3  4  4  0  0  0  0
  4  5  4  0  0  0  0
  5  6  4  0  0  0  0
  1  6  4  0  0  0  0
  1  7  4  0  0  0  0
  7  8  4  0  0  0  0
  8  9  4  0  0  0  0
  9 10  4  0  0  0  0
  2 10  4  0  0  0  0
  6 11  4  0  0  0  0
 11 12  4  0  0  0  0
 12 13  4  0  0  0  0
  7 13  4  0  0  0  0
 12 14  4  0  0  0  0
 14 15  4  0  0  0  0
 15 16  4  0  0  0  0
 16 17  4  0  0  0  0
 13 17  4  0  0  0  0
 11 18  4  0  0  0  0
 18 19  4  0  0  0  0
 19 20  4  0  0  0  0
 14 20  4  0  0  0  0
 20 21  1  0  0  0  0
 21 22  1  0  0  0  0
 21 23  2  0  0  0  0
M  END
>  <Compound Name> (224)
3-nitroperylene

>  <Formula> (224)
C20H11NO2

>  <LogP> (224)
5.87

>  <LUMO> (224)
-1.845

>  <MOL_ID> (224)
224

>  <Activity> (224)
0

$$$$
5-nitro-2-furaldehyde
csChmFindW1207992328
[comments]
 10 10  0     0  0  0  0  0  0  1 V2000
    4.1766    3.0503    0.0000 C   0  0  0  0  0  0  0  0  0  0
    2.7688    3.0503    0.0000 C   0  0  0  0  0  0  0  0  0  0
    2.3464    1.6894    0.0000 C   0  0  0  0  0  0  0  0  0  0
    3.4727    0.8916    0.0000 O   0  0  0  0  0  0  0  0  0  0
    4.5990    1.6894    0.0000 C   0  0  0  0  0  0  0  0  0  0
    0.9855    1.3609    0.0000 N   0  3  0  0  0  0  0  0  0  0
   -0.0000    2.3464    0.0000 O   0  5  0  0  0  0  0  0  0  0
    0.6101    0.0000    0.0000 O   0  0  0  0  0  0  0  0  0  0
    5.9599    1.3609    0.0000 C   0  0  0  0  0  0  0  0  0  0
    6.9454    2.3464    0.0000 O   0  0  0  0  0  0  0  0  0  0
  1  2  4  0  0  0  0
  2  3  4  0  0  0  0
  3  4  4  0  0  0  0
  4  5  4  0  0  0  0
  1  5  4  0  0  0  0
  3  6  1  0  0  0  0
  6  7  1  0  0  0  0
  6  8  2  0  0  0  0
  5  9  1  0  0  0  0
  9 10  2  0  0  0  0
M  END
>  <Compound Name> (225)
5-nitro-2-furaldehyde

>  <Formula> (225)
C5H3NO4

>  <LogP> (225)
1.01

>  <LUMO> (225)
-1.785

>  <MOL_ID> (225)
225

>  <Activity> (225)
0.64

$$$$
5-nitro-2-furanacrolein
csChmFindW1207992328
[comments]
 12 12  0     0  0  0  0  0  0  1 V2000
    4.1067    2.9867    0.0000 C   0  0  0  0  0  0  0  0  0  0
    2.7067    2.9867    0.0000 C   0  0  0  0  0  0  0  0  0  0
    2.2867    1.6800    0.0000 C   0  0  0  0  0  0  0  0  0  0
    3.4067    0.8867    0.0000 O   0  0  0  0  0  0  0  0  0  0
    4.5267    1.6800    0.0000 C   0  0  0  0  0  0  0  0  0  0
    0.9800    1.3067    0.0000 N   0  3  0  0  0  0  0  0  0  0
    0.0000    2.3333    0.0000 O   0  5  0  0  0  0  0  0  0  0
    0.6067    0.0000    0.0000 O   0  0  0  0  0  0  0  0  0  0
    5.9267    1.3067    0.0000 C   0  0  0  0  0  0  0  0  0  0
    6.9067    2.3333    0.0000 C   0  0  0  0  0  0  0  0  0  0
    8.2600    1.9600    0.0000 C   0  0  0  0  0  0  0  0  0  0
    9.2867    2.9400    0.0000 O   0  0  0  0  0  0  0  0  0  0
  1  2  4  0  0  0  0
  2  3  4  0  0  0  0
  3  4  4  0  0  0  0
  4  5  4  0  0  0  0
  1  5  4  0  0  0  0
  3  6  1  0  0  0  0
  6  7  1  0  0  0  0
  6  8  2  0  0  0  0
  5  9  1  0  0  0  0
  9 10  2  0  0  0  0
 10 11  1  0  0  0  0
 11 12  2  0  0  0  0
M  END
>  <Compound Name> (226)
5-nitro-2-furanacrolein

>  <Formula> (226)
C7H5NO4

>  <LogP> (226)
0.96

>  <LUMO> (226)
-1.851

>  <MOL_ID> (226)
226

>  <Activity> (226)
1.97

$$$$
nitrofurazone
csChmFindW1207992328
[comments]
 14 14  0     0  0  0  0  0  0  1 V2000
    4.1067    2.9867    0.0000 C   0  0  0  0  0  0  0  0  0  0
    2.7067    2.9867    0.0000 C   0  0  0  0  0  0  0  0  0  0
    2.2867    1.6800    0.0000 C   0  0  0  0  0  0  0  0  0  0
    3.4067    0.8867    0.0000 O   0  0  0  0  0  0  0  0  0  0
    4.5267    1.6800    0.0000 C   0  0  0  0  0  0  0  0  0  0
    5.9267    1.3067    0.0000 C   0  0  0  0  0  0  0  0  0  0
    6.9067    2.3333    0.0000 N   0  0  0  0  0  0  0  0  0  0
    8.2600    1.9600    0.0000 N   0  0  0  1  0  0  0  0  0  0
    9.6600    1.9600    0.0000 C   0  0  0  0  0  0  0  0  0  0
   11.0600    1.9600    0.0000 N   0  0  0  2  0  0  0  0  0  0
    9.6600    0.5600    0.0000 O   0  0  0  0  0  0  0  0  0  0
    0.9800    1.3067    0.0000 N   0  3  0  0  0  0  0  0  0  0
   -0.0000    2.3333    0.0000 O   0  5  0  0  0  0  0  0  0  0
    0.6067    0.0000    0.0000 O   0  0  0  0  0  0  0  0  0  0
  1  2  4  0  0  0  0
  2  3  4  0  0  0  0
  3  4  4  0  0  0  0
  4  5  4  0  0  0  0
  1  5  4  0  0  0  0
  5  6  1  0  0  0  0
  6  7  2  0  0  0  0
  7  8  1  0  0  0  0
  8  9  1  0  0  0  0
  9 10  1  0  0  0  0
  9 11  2  0  0  0  0
  3 12  1  0  0  0  0
 12 13  1  0  0  0  0
 12 14  2  0  0  0  0
M  END
>  <Compound Name> (227)
nitrofurazone

>  <Formula> (227)
C6H6N4O4

>  <LogP> (227)
0.23

>  <LUMO> (227)
-1.412

>  <MOL_ID> (227)
227

>  <Activity> (227)
1.02

$$$$
nitrofurantoin
csChmFindW1207992328
[comments]
 17 18  0     0  0  0  0  0  0  1 V2000
    4.2467    3.5000    0.0000 C   0  0  0  0  0  0  0  0  0  0
    2.8467    3.5000    0.0000 C   0  0  0  0  0  0  0  0  0  0
    2.4267    2.1933    0.0000 C   0  0  0  0  0  0  0  0  0  0
    3.5467    1.3533    0.0000 O   0  0  0  0  0  0  0  0  0  0
    4.6667    2.1933    0.0000 C   0  0  0  0  0  0  0  0  0  0
    6.0200    1.8200    0.0000 C   0  0  0  0  0  0  0  0  0  0
    6.9533    2.8000    0.0000 N   0  0  0  0  0  0  0  0  0  0
    8.2133    2.6133    0.0000 N   0  0  0  0  0  0  0  0  0  0
    8.6333    1.2600    0.0000 C   0  0  0  0  0  0  0  0  0  0
   10.0333    1.2600    0.0000 C   0  0  0  0  0  0  0  0  0  0
   10.5467    2.5200    0.0000 N   0  0  0  1  0  0  0  0  0  0
    9.4267    3.3600    0.0000 C   0  0  0  0  0  0  0  0  0  0
    9.4267    4.7600    0.0000 O   0  0  0  0  0  0  0  0  0  0
   11.0133    0.2800    0.0000 O   0  0  0  0  0  0  0  0  0  0
    1.1667    1.4933    0.0000 N   0  3  0  0  0  0  0  0  0  0
   -0.0000    2.1933    0.0000 O   0  5  0  0  0  0  0  0  0  0
    1.1667    0.0000    0.0000 O   0  0  0  0  0  0  0  0  0  0
  1  2  4  0  0  0  0
  2  3  4  0  0  0  0
  3  4  4  0  0  0  0
  4  5  4  0  0  0  0
  1  5  4  0  0  0  0
  5  6  1  0  0  0  0
  6  7  2  0  0  0  0
  8  9  1  0  0  0  0
  9 10  1  0  0  0  0
 10 11  1  0  0  0  0
 11 12  1  0  0  0  0
  8 12  1  0  0  0  0
 12 13  2  0  0  0  0
 10 14  2  0  0  0  0
  3 15  1  0  0  0  0
 15 16  1  0  0  0  0
 15 17  2  0  0  0  0
  7  8  1  0  0  0  0
M  END
>  <Compound Name> (228)
nitrofurantoin

>  <Formula> (228)
C8H6N4O5

>  <LogP> (228)
-0.47

>  <LUMO> (228)
-1.645

>  <MOL_ID> (228)
228

>  <Activity> (228)
1.03

$$$$
niridazole
csChmFindW1207992328
[comments]
 14 15  0     0  0  0  0  0  0  1 V2000
    4.1766    3.5196    0.0000 N   0  0  0  0  0  0  0  0  0  0
    2.7688    3.5196    0.0000 C   0  0  0  0  0  0  0  0  0  0
    2.3464    2.1587    0.0000 C   0  0  0  0  0  0  0  0  0  0
    3.4727    1.3609    0.0000 S   0  0  0  0  0  0  0  0  0  0
    4.5990    2.1587    0.0000 C   0  0  0  0  0  0  0  0  0  0
    6.0068    2.1587    0.0000 N   0  0  0  0  0  0  0  0  0  0
    7.1331    1.4078    0.0000 C   0  0  0  0  0  0  0  0  0  0
    8.2124    2.2526    0.0000 N   0  0  0  1  0  0  0  0  0  0
    7.7431    3.5196    0.0000 C   0  0  0  0  0  0  0  0  0  0
    6.3822    3.5196    0.0000 C   0  0  0  0  0  0  0  0  0  0
    7.1331    0.0000    0.0000 O   0  0  0  0  0  0  0  0  0  0
    0.9855    1.8302    0.0000 N   0  3  0  0  0  0  0  0  0  0
    0.0000    2.8157    0.0000 O   0  5  0  0  0  0  0  0  0  0
    0.6101    0.4693    0.0000 O   0  0  0  0  0  0  0  0  0  0
  1  2  4  0  0  0  0
  2  3  4  0  0  0  0
  3  4  4  0  0  0  0
  4  5  4  0  0  0  0
  1  5  4  0  0  0  0
  5  6  1  0  0  0  0
  6  7  1  0  0  0  0
  7  8  1  0  0  0  0
  8  9  1  0  0  0  0
  9 10  1  0  0  0  0
  6 10  1  0  0  0  0
  7 11  2  0  0  0  0
  3 12  1  0  0  0  0
 12 13  1  0  0  0  0
 12 14  2  0  0  0  0
M  END
>  <Compound Name> (229)
niridazole

>  <Formula> (229)
C6H7N4O3S

>  <LogP> (229)
0.95

>  <LUMO> (229)
-1.526

>  <MOL_ID> (229)
229

>  <Activity> (229)
2.59

$$$$
furazolidone
csChmFindW1207992328
[comments]
 16 17  0     0  0  0  0  0  0  1 V2000
    4.1044    3.4048    0.0000 C   0  0  0  0  0  0  0  0  0  0
    2.7052    3.4048    0.0000 C   0  0  0  0  0  0  0  0  0  0
    2.2854    2.0522    0.0000 C   0  0  0  0  0  0  0  0  0  0
    3.4048    1.2593    0.0000 O   0  0  0  0  0  0  0  0  0  0
    4.5241    2.0522    0.0000 C   0  0  0  0  0  0  0  0  0  0
    0.9328    1.7257    0.0000 N   0  3  0  0  0  0  0  0  0  0
    0.0000    2.7052    0.0000 O   0  5  0  0  0  0  0  0  0  0
    0.5597    0.3731    0.0000 O   0  0  0  0  0  0  0  0  0  0
    5.7368    1.3526    0.0000 C   0  0  0  0  0  0  0  0  0  0
    6.9494    2.0522    0.0000 N   0  0  0  0  0  0  0  0  0  0
    8.1621    1.3526    0.0000 N   0  0  0  0  0  0  0  0  0  0
    8.5819    0.0000    0.0000 C   0  0  0  0  0  0  0  0  0  0
   10.0277    0.0000    0.0000 C   0  0  0  0  0  0  0  0  0  0
   10.4941    1.3526    0.0000 O   0  0  0  0  0  0  0  0  0  0
    9.3281    2.2387    0.0000 C   0  0  0  0  0  0  0  0  0  0
    9.3281    3.6380    0.0000 O   0  0  0  0  0  0  0  0  0  0
  1  2  4  0  0  0  0
  2  3  4  0  0  0  0
  3  4  4  0  0  0  0
  4  5  4  0  0  0  0
  1  5  4  0  0  0  0
  3  6  1  0  0  0  0
  6  7  1  0  0  0  0
  6  8  2  0  0  0  0
  5  9  1  0  0  0  0
  9 10  2  0  0  0  0
 10 11  1  0  0  0  0
 11 12  1  0  0  0  0
 12 13  1  0  0  0  0
 13 14  1  0  0  0  0
 14 15  1  0  0  0  0
 11 15  1  0  0  0  0
 15 16  2  0  0  0  0
M  END
>  <Compound Name> (230)
furazolidone

>  <Formula> (230)
C8H7N3O5

>  <LogP> (230)
-0.04

>  <LUMO> (230)
-1.503

>  <MOL_ID> (230)
230

>  <Activity> (230)
2.24

$$$$
